<?xml version="1.0" encoding="UTF-8"?>

<!-- generated on 2026-02-17 16:47:25.575259 by Eclipse SUMO randomTrips.py v1_26_0+0000-fa7df22d7f1
<configuration>
    <net-file value=".\data\networks\city_001.net.xml"/>
    <output-trip-file value=".\data\routes\routes_001.rou.xml"/>
    <period value="1.0"/>
    <flows value="300"/>
</configuration>
-->

<!-- generated on 2026-02-17T16:47:25.495321+06:00 by Eclipse SUMO duarouter 1.26.0
<duarouterConfiguration xmlns:xsi="http://www.w3.org/2001/XMLSchema-instance" xsi:noNamespaceSchemaLocation="http://sumo.dlr.de/xsd/duarouterConfiguration.xsd">

    <input>
        <net-file value=".\data\networks\city_001.net.xml"/>
        <route-files value=".\data\routes\routes_001.rou.xml"/>
    </input>

    <output>
        <output-file value="routes.rou.xml"/>
        <alternatives-output value="NUL"/>
    </output>

    <processing>
        <keep-flows value="true"/>
    </processing>

    <time>
        <begin value="0"/>
        <end value="3600.0"/>
    </time>

    <report>
        <no-warnings value="true"/>
        <ignore-errors value="true"/>
        <no-step-log value="true"/>
    </report>

</duarouterConfiguration>
-->

<routes xmlns:xsi="http://www.w3.org/2001/XMLSchema-instance" xsi:noNamespaceSchemaLocation="http://sumo.dlr.de/xsd/routes_file.xsd">
    <flow id="0" begin="0.00" end="3600.00" period="300">
        <route edges="-53103899 -51510531#0 -54985260#15 -54985260#14 -25504350#3 -25504350#2 -25504350#1 -25504350#0 -51095934#6 -51095934#5"/>
    </flow>
    <flow id="1" begin="0.00" end="3600.00" period="300">
        <route edges="50831915#9 50831915#10 25486114#0 -54985260#4 -54985260#3 580760138#5 580760138#6 51095930#0 51095930#1 51095930#2 -88247764#10 -88247764#9 -88247764#8 -88247764#7 -88247764#6 -88247764#5 49830666#5 49830666#6 49830666#7"/>
    </flow>
    <flow id="10" begin="0.00" end="3600.00" period="300">
        <route edges="-54985279#5 -54985279#4 -54985279#3 -54985279#2 -54985279#1 -54985279#0 170083666#2 192981425#0 -50831915#4 -50831915#3 -50831915#2"/>
    </flow>
    <flow id="100" begin="0.00" end="3600.00" period="300">
        <route edges="-53103882#0 -50831915#9 -50831915#8 -50831915#7 -50831915#6 -50831915#5 192981425#1 192981425#2 51095934#0 51095934#1 51095934#2 51095934#3 51095934#4"/>
    </flow>
    <flow id="101" begin="0.00" end="3600.00" period="300">
        <route edges="170083666#0 170083666#1 170083666#2 192981425#0 192981425#1 192981425#2 -829563410#2 -829563410#1 -829563410#0 -620932850#3 -620932850#2 -620932850#1 -620932850#0 51095930#0 51095930#1 51095930#2 -88247764#10 -88247764#9"/>
    </flow>
    <flow id="102" begin="0.00" end="3600.00" period="300">
        <route edges="67549357#1 262767663#1 262767663#2 192987238#0 192987238#1 192987238#2 192987238#3 192987238#4 49830666#0 49830666#1 49830666#2 49830666#3 49830666#4 88247764#5 88247764#6 88247764#7 88247764#8"/>
    </flow>
    <flow id="103" begin="0.00" end="3600.00" period="300">
        <route edges="25684551#10 25684557#3 25684557#4 25684557#5 -477271462#5 -477271462#4 -477271462#3 -477271462#2 -477271462#1 -477271462#0 49830666#0 49830666#1 49830666#2 49830666#3 49830666#4 49830666#5 49830666#6 49830666#7 277523407#0 277523407#1 -50831915#8 -50831915#7 -50831915#6 -50831915#5 50831915#5"/>
    </flow>
    <flow id="104" begin="0.00" end="3600.00" period="300">
        <route edges="-50831915#1 50831918#0 -54985260#12 -54985260#11 -54985260#10 -54985260#9 -54985260#8 -54985260#7 -54985260#6 -54985260#5"/>
    </flow>
    <flow id="105" begin="0.00" end="3600.00" period="300">
        <route edges="829563410#1 -829563410#1 -829563410#0 -620932850#3 -620932850#2 -620932850#1 -620932850#0 -622102031#7 -622102031#6 -622102031#5 -622102031#4 25684551#4 25684551#5 25684551#6 25684551#7 25684551#8 25684551#9 25684551#10 25684557#3 25684557#4"/>
    </flow>
    <flow id="106" begin="0.00" end="3600.00" period="300">
        <route edges="25504350#5 25504350#6 25504350#7 -25504350#7 -25504350#6 -25504350#5 -25504350#4 -54985260#13 -54985260#12 50831919#1"/>
    </flow>
    <flow id="107" begin="0.00" end="3600.00" period="300">
        <route edges="192987238#0 192987238#1 192987238#2 192987238#3 192987238#4 49830666#0 49830666#1 49830666#2 49830666#3 49830666#4 49830666#5 49830666#6 49830666#7 829563410#0 829563410#1 829563410#2 51095934#0 51095934#1 51095934#2 51095934#3 51095934#4 51095934#5 51095934#6 25504350#0 25504350#1 25504350#2 25504350#3 54985260#14 54985260#15 54985260#16"/>
    </flow>
    <flow id="108" begin="0.00" end="3600.00" period="300">
        <route edges="-50831915#10 -50831915#9 -50831915#8 -50831915#7 -50831915#6 -50831915#5 192981425#1 192981425#2 192981424#0 192981424#1 192981424#2 192981424#3 192981424#4 192981424#5 192981424#6 192981424#7 37177801#0 744871126#0"/>
    </flow>
    <flow id="109" begin="0.00" end="3600.00" period="300">
        <route edges="-25684551#5 -25684551#4 622102031#4 622102031#5 622102031#6 622102031#7 620932850#0 620932850#1 620932850#2 620932850#3 277523407#0 277523407#1 277523407#2 54985260#7 54985260#8 54985260#9 54985260#10 54985260#11 54985260#12 -50831918#0"/>
    </flow>
    <flow id="11" begin="0.00" end="3600.00" period="300">
        <route edges="67549357#1 262767663#1 262767663#2 192987238#0 192987238#1 192987238#2 192987238#3 192987238#4 477271462#0 477271462#1 477271462#2 477271462#3 477271462#4 477271462#5 -186475564#2 -186475564#1 -186475564#0 -51095930#2 -51095930#1 -51095930#0 -580760138#6 -580760138#5"/>
    </flow>
    <flow id="110" begin="0.00" end="3600.00" period="300">
        <route edges="262767663#0 262767663#1 262767663#2 192987238#0 192987238#1 192987238#2 192987238#3 192987238#4 49830666#0 49830666#1 49830666#2 49830666#3 49830666#4 49830666#5 49830666#6 49830666#7"/>
    </flow>
    <flow id="111" begin="0.00" end="3600.00" period="300">
        <route edges="-51095934#5 -51095934#4 -51095934#3 -51095934#2 -51095934#1 -51095934#0 -829563410#2 -829563410#1 -829563410#0 -620932850#3 -620932850#2 -620932850#1 -620932850#0 51095930#0 51095930#1 51095930#2 186475564#0 186475564#1 186475564#2 -477271462#5 -477271462#4"/>
    </flow>
    <flow id="112" begin="0.00" end="3600.00" period="300">
        <route edges="580760138#1 580760138#2 580760138#3 580760138#4 580760138#5 580760138#6 620932850#0 620932850#1 620932850#2 620932850#3 829563410#0 829563410#1 829563410#2 192981424#0 192981424#1 192981424#2 192981424#3 192981424#4 192981424#5 192981424#6 192981424#7 -52152425#2 -52152425#1"/>
    </flow>
    <flow id="113" begin="0.00" end="3600.00" period="300">
        <route edges="262767663#0 262767663#1 262767663#2 -477271454 37177801#0 37177801#1 37177801#2"/>
    </flow>
    <flow id="114" begin="0.00" end="3600.00" period="300">
        <route edges="-88247764#3 -88247764#2 -88247764#1 -88247764#0 192981424#5 192981424#6 192981424#7 477271454 192987238#0 192987238#1 192987238#2 192987238#3 192987238#4 477271462#0 477271462#1 477271462#2 477271462#3 477271462#4 477271462#5 -25684557#5 -25684557#4 -25684557#3 25684557#3 25684557#4 25684557#5"/>
    </flow>
    <flow id="115" begin="0.00" end="3600.00" period="300">
        <route edges="25486115#2 -622102031#5 -622102031#4 -622102031#3 -622102031#2 622102031#2 622102031#3"/>
    </flow>
    <flow id="116" begin="0.00" end="3600.00" period="300">
        <route edges="-51095930#2 -51095930#1 -51095930#0 51095930#0 51095930#1 51095930#2 -88247764#10 -88247764#9 -88247764#8 -88247764#7 -88247764#6 -88247764#5 49830666#5 49830666#6 49830666#7 277523407#0 277523407#1 -50831915#8 -50831915#7 -50831915#6 -50831915#5 -50831915#4 50831915#4"/>
    </flow>
    <flow id="117" begin="0.00" end="3600.00" period="300">
        <route edges="-51095934#6 -51095934#5 -51095934#4 -51095934#3 -51095934#2 -51095934#1 -51095934#0 192981424#0 192981424#1 192981424#2 192981424#3 192981424#4 88247764#0 88247764#1 88247764#2 88247764#3 88247764#4 -88247764#4 -88247764#3 -88247764#2 -88247764#1 -88247764#0"/>
    </flow>
    <flow id="118" begin="0.00" end="3600.00" period="300">
        <route edges="49830666#1 49830666#2 49830666#3 49830666#4 49830666#5 49830666#6 49830666#7 277523407#0 277523407#1 -50831915#8 -50831916#1 -54985260#7"/>
    </flow>
    <flow id="119" begin="0.00" end="3600.00" period="300">
        <route edges="-54985260#6 -54985260#5 -54985260#4 -54985260#3 580760138#5 580760138#6 51095930#0"/>
    </flow>
    <flow id="12" begin="0.00" end="3600.00" period="300">
        <route edges="-25684551#9 -25684551#8 -25684551#7 -25684551#6 -25684551#5 -25684551#4 25684551#4 25684551#5 25684551#6 25684551#7 25684551#8 25684551#9 25684551#10 -25684557#2"/>
    </flow>
    <flow id="120" begin="0.00" end="3600.00" period="300">
        <route edges="-25684551#2 54985260#0 54985260#1 54985260#2 580760138#5 580760138#6 51095930#0 51095930#1 51095930#2 186475564#0 186475564#1 186475564#2"/>
    </flow>
    <flow id="121" begin="0.00" end="3600.00" period="300">
        <route edges="88247764#9 88247764#10 186475564#0 186475564#1 186475564#2 -477271462#5 -477271462#4 -477271462#3 -477271462#2 -477271462#1 -477271462#0 49830666#0 49830666#1 49830666#2 49830666#3 49830666#4 88247764#5 88247764#6 88247764#7 88247764#8"/>
    </flow>
    <flow id="122" begin="0.00" end="3600.00" period="300">
        <route edges="-25684551#2 54985260#0 54985260#1 54985260#2 580760138#5 580760138#6 620932850#0 620932850#1 620932850#2 620932850#3 829563410#0 829563410#1 829563410#2 51095934#0 51095934#1 51095934#2 51095934#3 51095934#4 51095934#5 51095934#6 51095934#7 51095934#8 51095934#9 51095934#10 51095934#11 51095934#12 51095934#13 51095934#14 51095934#15 -51095934#15 -51095934#14"/>
    </flow>
    <flow id="123" begin="0.00" end="3600.00" period="300">
        <route edges="-53103882#0 50831915#10 25486114#0 -54985260#4 -54985260#3 580760138#5 580760138#6 -622102031#7 -622102031#6 -622102031#5 -622102031#4 -622102031#3 -622102031#2 622102031#2 622102031#3"/>
    </flow>
    <flow id="124" begin="0.00" end="3600.00" period="300">
        <route edges="54985279#3 54985279#4 -54985279#4 -54985279#3 -54985279#2 -54985279#1 54985279#1"/>
    </flow>
    <flow id="125" begin="0.00" end="3600.00" period="300">
        <route edges="-622102030#2 622102030#2 622102030#3 622102031#0 622102031#1 622102031#2 622102031#3 622102031#4 622102031#5 622102031#6 622102031#7 620932850#0 620932850#1 620932850#2 620932850#3 277523407#0 277523407#1 -50831915#8 -50831915#7 -50831915#6 -50831915#5 -50831915#4 -50831915#3"/>
    </flow>
    <flow id="126" begin="0.00" end="3600.00" period="300">
        <route edges="54985260#1 54985260#2 54985260#3 54985260#4 54985260#5 54985260#6 54985260#7 54985260#8 54985260#9 54985260#10 54985260#11 54985260#12 -50831918#0 50831915#1"/>
    </flow>
    <flow id="127" begin="0.00" end="3600.00" period="300">
        <route edges="477271462#1 477271462#2 477271462#3 477271462#4 477271462#5 -477271462#5 -477271462#4 -477271462#3 -477271462#2 -477271462#1 -477271462#0 49830666#0 49830666#1 49830666#2 49830666#3 49830666#4 49830666#5 49830666#6 49830666#7 829563410#0 829563410#1 829563410#2 51095934#0 51095934#1 51095934#2 51095934#3 51095934#4 51095934#5 51095934#6 25504350#0 25504350#1 25504350#2 1124346622#0 1124346622#1 1124346622#2 -1124346622#2 -1124346622#1"/>
    </flow>
    <flow id="128" begin="0.00" end="3600.00" period="300">
        <route edges="53103893#0 53103893#1 50831915#7 50831915#8 277523407#2 -54985260#6"/>
    </flow>
    <flow id="129" begin="0.00" end="3600.00" period="300">
        <route edges="477271462#4 477271462#5 -186475564#2 -186475564#1 -186475564#0 -51095930#2 -51095930#1 -51095930#0 -622102031#7 -622102031#6 -622102031#5 -622102031#4 622102031#4 622102031#5"/>
    </flow>
    <flow id="13" begin="0.00" end="3600.00" period="300">
        <route edges="54985260#14 -54985260#14 -25504350#3 -25504350#2 -25504350#1 -25504350#0 -51095934#6 -51095934#5 -51095934#4 -51095934#3 -51095934#2 -51095934#1 -51095934#0 192981424#0 192981424#1 192981424#2 192981424#3 192981424#4 192981424#5 192981424#6 192981424#7 37177801#0 37177801#1 37177801#2 37177801#3 37177801#4 37177801#5 37177801#6 37177801#7 37177801#8 37177801#9 37177801#10"/>
    </flow>
    <flow id="130" begin="0.00" end="3600.00" period="300">
        <route edges="-50449361#3 -50449361#2 -50449361#1 -64973297#1 -64973297#0 25684551#1 54985260#0 54985260#1 54985260#2 580760138#5 580760138#6 51095930#0 51095930#1 51095930#2 186475564#0 186475564#1 186475564#2 -477271462#5 -477271462#4 -477271462#3 -477271462#2"/>
    </flow>
    <flow id="131" begin="0.00" end="3600.00" period="300">
        <route edges="-25684557#5 -25684557#4 -25684557#3 -25684551#10 -25684551#9 -25684551#8 -25684551#7 -25684551#6 -25684551#5 -25684551#4 25684551#4"/>
    </flow>
    <flow id="132" begin="0.00" end="3600.00" period="300">
        <route edges="-53103893#1 -53103893#0 829563410#2 192981424#0 192981424#1 192981424#2 192981424#3 192981424#4 192981424#5 192981424#6 192981424#7 37177801#0 37177801#1 37177801#2 37177801#3 37177801#4 37177801#5 37177801#6 37177801#7 37177801#8 37177801#9 37177801#10 37177801#11"/>
    </flow>
    <flow id="133" begin="0.00" end="3600.00" period="300">
        <route edges="50831915#10 -50831915#10 -50831915#9 -50831915#8 -50831915#7 -50831915#6 -50831915#5 192981425#1 192981425#2 51095934#0 51095934#1 51095934#2 51095934#3 51095934#4 51095934#5 51095934#6 51095934#7 51095934#8 51095934#9 51095934#10 51095934#11 51095934#12 51095934#13 51095934#14 51095934#15 -51095934#15 -51095934#14 -51095934#13 -51095934#12 -51095934#11 -51095934#10"/>
    </flow>
    <flow id="134" begin="0.00" end="3600.00" period="300">
        <route edges="192981424#6 192981424#7 477271454 192987238#0 192987238#1 192987238#2 192987238#3 192987238#4 49830666#0 49830666#1 49830666#2 49830666#3 49830666#4 49830666#5 49830666#6 49830666#7 277523407#0 277523407#1 277523407#2 -54985260#6 -54985260#5 -54985260#4 -54985260#3 580760138#5 580760138#6"/>
    </flow>
    <flow id="135" begin="0.00" end="3600.00" period="300">
        <route edges="54985260#14 -54985260#14 -25504350#3 -25504350#2 -25504350#1 -25504350#0 -51095934#6 -51095934#5 -51095934#4 -51095934#3 -51095934#2 -51095934#1 -51095934#0 -829563410#2 -829563410#1 -829563410#0 -620932850#3 -620932850#2 -620932850#1 -620932850#0 51095930#0 51095930#1 51095930#2 186475564#0 186475564#1 186475564#2 -25684557#5 -25684557#4 -25684557#3 -25684557#2 -25684557#1 -25684557#0"/>
    </flow>
    <flow id="136" begin="0.00" end="3600.00" period="300">
        <route edges="-88247764#4 -88247764#3 -88247764#2 -88247764#1 -88247764#0 88247764#0 88247764#1 88247764#2 88247764#3 88247764#4 49830666#5 49830666#6 49830666#7 277523407#0 277523407#1 -50831915#8 -50831915#7 -50831915#6 -50831915#5 -50831915#4 -50831915#3 -50831915#2 -50831915#1 50831918#0 -54985260#12"/>
    </flow>
    <flow id="137" begin="0.00" end="3600.00" period="300">
        <route edges="-1075767203#1 -1075767203#0 -25684487 25684487 1075767203#0 1075767203#1 49830666#0 49830666#1 49830666#2 49830666#3 49830666#4 49830666#5 49830666#6 49830666#7 829563410#0 829563410#1 829563410#2 51095934#0 51095934#1 51095934#2 51095934#3 51095934#4 51095934#5 51095934#6 51095934#7 51095934#8 51095934#9 51095934#10 51095934#11 51095934#12 51095934#13"/>
    </flow>
    <flow id="138" begin="0.00" end="3600.00" period="300">
        <route edges="50831916#0 -54985260#7 -54985260#6 -54985260#5 -54985260#4 -54985260#3 -54985260#2 -54985260#1 -54985260#0 25684551#2 25684551#3"/>
    </flow>
    <flow id="139" begin="0.00" end="3600.00" period="300">
        <route edges="-88247764#6 -88247764#5 49830666#5 49830666#6 49830666#7 829563410#0 829563410#1 829563410#2 51095934#0 51095934#1 51095934#2 51095934#3 51095934#4 51095934#5 51095934#6 25504350#0 25504350#1 25504350#2 1124346622#0 1124346622#1 1124346622#2 -1124346622#2 -1124346622#1"/>
    </flow>
    <flow id="14" begin="0.00" end="3600.00" period="300">
        <route edges="52152425#0 52152425#1 52152425#2 477271454 192987238#0 192987238#1 192987238#2 192987238#3 192987238#4 49830666#0 49830666#1 49830666#2 49830666#3 49830666#4 49830666#5 49830666#6 49830666#7 277523407#0 277523407#1 50831915#9"/>
    </flow>
    <flow id="140" begin="0.00" end="3600.00" period="300">
        <route edges="-25684551#3 -25684551#2 54985260#0 54985260#1 54985260#2 54985260#3 54985260#4 54985260#5 54985260#6 54985260#7 54985260#8 54985260#9 50831914#1 54985279#1 54985279#2"/>
    </flow>
    <flow id="141" begin="0.00" end="3600.00" period="300">
        <route edges="580760138#6 -622102031#7 -622102031#6 -622102031#5 -622102031#4 25684551#4 25684551#5 25684551#6 25684551#7 25684551#8 25684551#9 25684551#10"/>
    </flow>
    <flow id="142" begin="0.00" end="3600.00" period="300">
        <route edges="54985260#1 54985260#2 580760138#5 580760138#6 -622102031#7 -622102031#6 -622102031#5 -622102031#4 25684551#4 25684551#5 25684551#6 25684551#7 25684551#8 25684551#9 25684551#10 25684557#3 25684557#4 25684557#5"/>
    </flow>
    <flow id="143" begin="0.00" end="3600.00" period="300">
        <route edges="-50831914#1 -50831914#0 50831915#6 -53103893#1 -53103893#0 -829563410#1 -829563410#0 -620932850#3 -620932850#2 -620932850#1 -620932850#0 -622102031#7 -622102031#6 -622102031#5 -622102031#4 -622102031#3 -622102031#2 -622102031#1 -622102031#0 -50449361#3 -50449361#2 -50449361#1"/>
    </flow>
    <flow id="144" begin="0.00" end="3600.00" period="300">
        <route edges="-54985260#3 -580760138#4 -580760138#3 -580760138#2 -580760138#1 -580760138#0 580760138#0 580760138#1 580760138#2 580760138#3"/>
    </flow>
    <flow id="145" begin="0.00" end="3600.00" period="300">
        <route edges="51095934#9 51095934#10 51095934#11 51095934#12 51095934#13 51095934#14 51095934#15 -51095934#15 -51095934#14 -51095934#13 -51095934#12 -51095934#11 -51095934#10 -51095934#9 -51095934#8 -51095934#7 -51095934#6 -51095934#5 -51095934#4 -51095934#3 -51095934#2 -51095934#1 -51095934#0 -829563410#2 -829563410#1 -829563410#0 -620932850#3 -620932850#2 -620932850#1 -620932850#0 -580760138#6 -580760138#5 54985260#3 54985260#4"/>
    </flow>
    <flow id="146" begin="0.00" end="3600.00" period="300">
        <route edges="580760138#4 580760138#5 580760138#6 620932850#0 620932850#1 620932850#2 620932850#3 829563410#0 829563410#1 829563410#2 51095934#0 51095934#1 51095934#2 51095934#3 51095934#4 51095934#5 51095934#6 51095934#7 51095934#8 51095934#9 51095934#10 51095934#11 51095934#12 51095934#13 51095934#14 51095934#15 -51095934#15 -51095934#14 -51095934#13"/>
    </flow>
    <flow id="147" begin="0.00" end="3600.00" period="300">
        <route edges="-51510530 -54985260#14 -25504350#3 -25504350#2 -25504350#1 -25504350#0 -51095934#6 -51095934#5 -51095934#4 -51095934#3 -51095934#2 -51095934#1 -51095934#0 -829563410#2 -829563410#1 -829563410#0 -620932850#3 -620932850#2 -620932850#1 -620932850#0 51095930#0 51095930#1 51095930#2 186475564#0 186475564#1 186475564#2 -25684557#5 -25684557#4"/>
    </flow>
    <flow id="148" begin="0.00" end="3600.00" period="300">
        <route edges="51095934#2 51095934#3 51095934#4 51095934#5 51095934#6 25504350#0 25504350#1 25504350#2 25504350#3 -54985260#13 -54985260#12 -54985260#11 -54985260#10 50831914#1 54985279#1 54985279#2 54985279#3"/>
    </flow>
    <flow id="149" begin="0.00" end="3600.00" period="300">
        <route edges="-829563410#2 829563410#2 192981424#0 192981424#1 192981424#2 192981424#3 192981424#4 192981424#5 192981424#6 192981424#7 37177801#0 37177801#1 37177801#2 37177801#3"/>
    </flow>
    <flow id="15" begin="0.00" end="3600.00" period="300">
        <route edges="25504350#3 -54985260#13 -54985260#12 -54985260#11 192981425#0 192981425#1 192981425#2 192981424#0 192981424#1 192981424#2 192981424#3 192981424#4 88247764#0"/>
    </flow>
    <flow id="150" begin="0.00" end="3600.00" period="300">
        <route edges="-50831915#1 -50831915#0 -25504350#1 -25504350#0 -51095934#6 -51095934#5 -51095934#4 -51095934#3 -51095934#2 -51095934#1 -51095934#0 -829563410#2 -829563410#1 -829563410#0 -620932850#3 -620932850#2 -620932850#1 -620932850#0 -622102031#7 -622102031#6 -622102031#5 -622102031#4 -622102031#3 -622102031#2 -622102031#1 -622102031#0 622102031#0 622102031#1"/>
    </flow>
    <flow id="151" begin="0.00" end="3600.00" period="300">
        <route edges="54985260#7 54985260#8 54985260#9 -50831914#0 -50831915#5 192981425#1 192981425#2 192981424#0 192981424#1 192981424#2 192981424#3 192981424#4 88247764#0 88247764#1"/>
    </flow>
    <flow id="152" begin="0.00" end="3600.00" period="300">
        <route edges="52152425#1 52152425#2 477271454 192987238#0 192987238#1 192987238#2 192987238#3 192987238#4 49830666#0 49830666#1 49830666#2 49830666#3 49830666#4 49830666#5 49830666#6 49830666#7 277523407#0 277523407#1 277523407#2 54985260#7 54985260#8 54985260#9 50831914#1 54985279#1 54985279#2"/>
    </flow>
    <flow id="153" begin="0.00" end="3600.00" period="300">
        <route edges="-186475564#0 -51095930#2 -51095930#1 -51095930#0 -580760138#6 -580760138#5 54985260#3 54985260#4 54985260#5 54985260#6 54985260#7 54985260#8 50831917"/>
    </flow>
    <flow id="154" begin="0.00" end="3600.00" period="300">
        <route edges="-54985279#2 -54985279#1 -50831914#1 -50831914#0 50831915#6 -53103893#1 -53103893#0 -829563410#1 -829563410#0 -620932850#3 -620932850#2 -620932850#1 -620932850#0 -622102031#7 -622102031#6 -622102031#5 -622102031#4 -622102031#3 -622102031#2 622102031#2"/>
    </flow>
    <flow id="155" begin="0.00" end="3600.00" period="300">
        <route edges="51543398#0 51543398#1 622102031#2 622102031#3 622102031#4 622102031#5 622102031#6 622102031#7 -580760138#6 -580760138#5 54985260#3 54985260#4 54985260#5"/>
    </flow>
    <flow id="156" begin="0.00" end="3600.00" period="300">
        <route edges="52152425#1 52152425#2 477271454 192987238#0 192987238#1 192987238#2 192987238#3 192987238#4 477271462#0 477271462#1 477271462#2 477271462#3 477271462#4 477271462#5 -186475564#2 -186475564#1 -186475564#0 -51095930#2 -51095930#1 -51095930#0 -580760138#6 -580760138#5 -54985260#2 -54985260#1 -54985260#0"/>
    </flow>
    <flow id="157" begin="0.00" end="3600.00" period="300">
        <route edges="51095934#5 51095934#6 -51095934#6 -51095934#5 -51095934#4 -51095934#3 -51095934#2 -51095934#1 -51095934#0 192981424#0 192981424#1 192981424#2 192981424#3 192981424#4 192981424#5 192981424#6 192981424#7 477271454 -477271454"/>
    </flow>
    <flow id="158" begin="0.00" end="3600.00" period="300">
        <route edges="54985279#0 54985279#1 54985279#2 54985279#3 54985279#4 50831916#0 -54985260#7 -54985260#6 -54985260#5 -54985260#4 -54985260#3 54985260#3"/>
    </flow>
    <flow id="159" begin="0.00" end="3600.00" period="300">
        <route edges="-51095934#14 -51095934#13 -51095934#12 -51095934#11 -51095934#10 -51095934#9 -51095934#8 -51095934#7 -51095934#6 -51095934#5 -51095934#4 -51095934#3 -51095934#2 -51095934#1 -51095934#0 -829563410#2 -829563410#1 -829563410#0 277523407#0 277523407#1 277523407#2 -54985260#6 53103882#1"/>
    </flow>
    <flow id="16" begin="0.00" end="3600.00" period="300">
        <route edges="-622102031#1 -622102031#0 -50449361#3 -50449361#2 -50449361#1 -64973297#1 -64973297#0 25684551#1 25684551#2 25684551#3"/>
    </flow>
    <flow id="160" begin="0.00" end="3600.00" period="300">
        <route edges="170083666#2 -54985260#10 -54985260#9"/>
    </flow>
    <flow id="161" begin="0.00" end="3600.00" period="300">
        <route edges="51095934#8 51095934#9 51095934#10 51095934#11 51095934#12 51095934#13 51095934#14 51095934#15 -51095934#15 -51095934#14 -51095934#13 -51095934#12 -51095934#11 -51095934#10 -51095934#9 -51095934#8 -51095934#7"/>
    </flow>
    <flow id="162" begin="0.00" end="3600.00" period="300">
        <route edges="-186475564#0 -51095930#2 -51095930#1"/>
    </flow>
    <flow id="163" begin="0.00" end="3600.00" period="300">
        <route edges="-54985279#1 -50831914#1 -54985260#9 -54985260#8 -54985260#7 -54985260#6 -54985260#5 54985260#5"/>
    </flow>
    <flow id="164" begin="0.00" end="3600.00" period="300">
        <route edges="829563410#1 829563410#2 51095934#0 51095934#1 51095934#2 51095934#3 51095934#4 51095934#5 51095934#6 25504350#0 25504350#1 25504350#2 25504350#3 -54985260#13"/>
    </flow>
    <flow id="165" begin="0.00" end="3600.00" period="300">
        <route edges="88247764#2 88247764#3 88247764#4 49830666#5 49830666#6 49830666#7 829563410#0 829563410#1 829563410#2 51095934#0 51095934#1 51095934#2 51095934#3 51095934#4 51095934#5 51095934#6 25504350#0 25504350#1 25504350#2 25504350#3 25504350#4 25504350#5 25504350#6 25504350#7"/>
    </flow>
    <flow id="166" begin="0.00" end="3600.00" period="300">
        <route edges="622102031#5 622102031#6 622102031#7 51095930#0 51095930#1 51095930#2 186475564#0 186475564#1 186475564#2 -477271462#5 -477271462#4 -477271462#3 -477271462#2"/>
    </flow>
    <flow id="167" begin="0.00" end="3600.00" period="300">
        <route edges="829563410#2 -829563410#2 53103893#0 53103893#1 50831915#7 -50831916#1"/>
    </flow>
    <flow id="168" begin="0.00" end="3600.00" period="300">
        <route edges="-25684557#5 -25684557#4 -25684557#3 -25684551#10 -25684551#9 -25684551#8 -25684551#7 -25684551#6 -25684551#5 -25684551#4 622102031#4 622102031#5 622102031#6 622102031#7 620932850#0 620932850#1 620932850#2 620932850#3 829563410#0 829563410#1 829563410#2 51095934#0 51095934#1 51095934#2 51095934#3 51095934#4 51095934#5 51095934#6 25504350#0 25504350#1 25504350#2 1124346622#0 1124346622#1 1124346622#2"/>
    </flow>
    <flow id="169" begin="0.00" end="3600.00" period="300">
        <route edges="50831915#5 50831914#0 -54985260#9 50831917 -54985279#2"/>
    </flow>
    <flow id="17" begin="0.00" end="3600.00" period="300">
        <route edges="53369130#2 622102030#2 622102030#3 622102031#0 622102031#1 622102031#2 622102031#3 622102031#4 622102031#5 622102031#6 622102031#7 620932850#0 620932850#1 620932850#2 620932850#3 829563410#0 829563410#1 829563410#2 192981424#0 192981424#1 192981424#2 192981424#3 192981424#4 192981424#5 192981424#6 192981424#7 37177801#0 37177801#1 37177801#2"/>
    </flow>
    <flow id="170" begin="0.00" end="3600.00" period="300">
        <route edges="277523407#1 277523407#2 -54985260#6 -54985260#5 25486114#1"/>
    </flow>
    <flow id="171" begin="0.00" end="3600.00" period="300">
        <route edges="-622102031#4 25684551#4 25684551#5 25684551#6 25684551#7 25684551#8 25684551#9 25684551#10 25684557#3"/>
    </flow>
    <flow id="172" begin="0.00" end="3600.00" period="300">
        <route edges="-51510531#1 -51510531#0 -54985260#15 -54985260#14 -54985260#13 -54985260#12 -54985260#11 192981425#0 50831915#5 50831915#6 50831915#7 50831915#8 50831915#9 50831915#10 50831915#11"/>
    </flow>
    <flow id="173" begin="0.00" end="3600.00" period="300">
        <route edges="-1075767203#0 -25684487 25684487 1075767203#0 1075767203#1 477271462#0 477271462#1 477271462#2 477271462#3 477271462#4 477271462#5 -186475564#2 -186475564#1 -186475564#0 -51095930#2 -51095930#1 -51095930#0 -622102031#7 -622102031#6 -622102031#5 -622102031#4 -622102031#3 -622102031#2 -622102031#1 -622102031#0 622102031#0"/>
    </flow>
    <flow id="174" begin="0.00" end="3600.00" period="300">
        <route edges="25504350#4 25504350#5 25504350#6 25504350#7 -25504350#7 -25504350#6 -25504350#5 -25504350#4 -25504350#3 -25504350#2 50831915#0 50831915#1 50831915#2 50831915#3 50831915#4 50831915#5"/>
    </flow>
    <flow id="175" begin="0.00" end="3600.00" period="300">
        <route edges="50831916#1 -50831915#7 -50831915#6 -50831915#5 192981425#1 192981425#2 192981424#0 192981424#1 192981424#2 192981424#3 192981424#4 88247764#0 88247764#1 88247764#2 88247764#3 88247764#4 49830666#5"/>
    </flow>
    <flow id="176" begin="0.00" end="3600.00" period="300">
        <route edges="-620932850#2 -620932850#1 -620932850#0 -622102031#7 -622102031#6 -622102031#5 -622102031#4 -25684551#3 -25684551#2"/>
    </flow>
    <flow id="177" begin="0.00" end="3600.00" period="300">
        <route edges="477271462#5 -186475564#2 -186475564#1 -186475564#0 -51095930#2 -51095930#1 -51095930#0 -580760138#6 -580760138#5 -580760138#4 -580760138#3 -580760138#2"/>
    </flow>
    <flow id="178" begin="0.00" end="3600.00" period="300">
        <route edges="-54985260#5 54985260#5 54985260#6 54985260#7 54985260#8 54985260#9 54985260#10 54985260#11 54985260#12 54985260#13 54985260#14"/>
    </flow>
    <flow id="179" begin="0.00" end="3600.00" period="300">
        <route edges="50831915#2 50831915#3 50831915#4 50831915#5 50831914#0 -54985260#9 -54985260#8 -54985260#7"/>
    </flow>
    <flow id="18" begin="0.00" end="3600.00" period="300">
        <route edges="54985260#6 -54985260#6 -54985260#5 -54985260#4 -54985260#3 580760138#5 580760138#6 -622102031#7 -622102031#6 -622102031#5 -622102031#4 25684551#4 25684551#5 25684551#6 25684551#7 25684551#8 25684551#9 25684551#10 25684557#3"/>
    </flow>
    <flow id="180" begin="0.00" end="3600.00" period="300">
        <route edges="-54985260#3 580760138#5 580760138#6 51095930#0 51095930#1 51095930#2 -88247764#10 -88247764#9 -88247764#8 -88247764#7 -88247764#6 -88247764#5 -88247764#4"/>
    </flow>
    <flow id="181" begin="0.00" end="3600.00" period="300">
        <route edges="-829563410#0 277523407#0 277523407#1 277523407#2 -54985260#6 -54985260#5"/>
    </flow>
    <flow id="182" begin="0.00" end="3600.00" period="300">
        <route edges="-50449361#1 -64973297#1 -64973297#0 25684551#1 54985260#0 54985260#1 54985260#2 580760138#5 580760138#6 51095930#0 51095930#1 51095930#2 -88247764#10 -88247764#9 -88247764#8"/>
    </flow>
    <flow id="183" begin="0.00" end="3600.00" period="300">
        <route edges="622102031#5 -25486115#2 -25486115#1 -54985260#0 -25684551#1 64973297#0 64973297#1 50449361#1"/>
    </flow>