<?xml version="1.0" encoding="UTF-8"?>

<!-- generated on 2026-02-19T20:05:23.579861+06:00 by Eclipse SUMO netedit 1.26.0
<neteditConfiguration xmlns:xsi="http://www.w3.org/2001/XMLSchema-instance" xsi:noNamespaceSchemaLocation="http://sumo.dlr.de/xsd/neteditConfiguration.xsd">

    <input>
        <sumo-net-file value=".\data\networks\city_001.net.xml"/>
    </input>

    <output>
        <output-file value=".\data\networks\city_001.net.xml"/>
    </output>

    <processing>
        <geometry.min-radius.fix.railways value="false"/>
        <geometry.avoid-overlap value="false"/>
        <geometry.max-grade.fix value="false"/>
        <offset.disable-normalization value="true"/>
        <lefthand value="0"/>
    </processing>

    <junctions>
        <no-turnarounds value="true"/>
        <junctions.corner-detail value="5"/>
        <junctions.limit-turn-speed value="5.50"/>
        <rectangular-lane-cut value="0"/>
    </junctions>

    <pedestrian>
        <walkingareas value="0"/>
    </pedestrian>

</neteditConfiguration>
-->

<net version="1.20" junctionCornerDetail="5" limitTurnSpeed="5.50" avoidOverlap="0" xmlns:xsi="http://www.w3.org/2001/XMLSchema-instance" xsi:noNamespaceSchemaLocation="http://sumo.dlr.de/xsd/net_file.xsd">

    <location netOffset="-467311.09,-4743445.82" convBoundary="0.00,0.00,2355.84,3613.85" origBoundary="74.599875,42.842920,74.628731,42.875493" projParameter="+proj=utm +zone=43 +ellps=WGS84 +datum=WGS84 +units=m +no_defs"/>

    <type id="highway.cycleway" priority="1" numLanes="1" speed="5.56" allow="bicycle" oneway="0" width="2.00"/>
    <type id="highway.footway" priority="1" numLanes="1" speed="2.78" allow="pedestrian" oneway="1" width="2.00"/>
    <type id="highway.primary" priority="12" numLanes="2" speed="27.78" disallow="tram rail_urban rail rail_electric rail_fast ship container cable_car subway aircraft wheelchair scooter drone" oneway="0"/>
    <type id="highway.residential" priority="3" numLanes="1" speed="13.89" disallow="tram rail_urban rail rail_electric rail_fast ship container cable_car subway aircraft wheelchair scooter drone" oneway="0"/>
    <type id="highway.secondary" priority="11" numLanes="1" speed="27.78" disallow="tram rail_urban rail rail_electric rail_fast ship container cable_car subway aircraft wheelchair scooter drone" oneway="0"/>
    <type id="highway.secondary_link" priority="6" numLanes="1" speed="22.22" disallow="tram rail_urban rail rail_electric rail_fast ship container cable_car subway aircraft wheelchair scooter drone" oneway="0"/>
    <type id="highway.service" priority="1" numLanes="1" speed="5.56" allow="pedestrian delivery bicycle" oneway="0"/>
    <type id="highway.tertiary" priority="10" numLanes="1" speed="22.22" disallow="tram rail_urban rail rail_electric rail_fast ship container cable_car subway aircraft wheelchair scooter drone" oneway="0"/>
    <type id="highway.unclassified" priority="4" numLanes="1" speed="13.89" disallow="tram rail_urban rail rail_electric rail_fast ship container cable_car subway aircraft wheelchair scooter drone" oneway="0"/>

    <edge id=":10084022212_0" function="internal">
        <lane id=":10084022212_0_0" index="0" allow="pedestrian delivery bicycle" speed="4.53" length="3.79" shape="658.66,1674.73 658.45,1673.85 657.92,1673.23 657.08,1672.88 655.92,1672.79"/>
    </edge>
    <edge id=":10084022212_1" function="internal">
        <lane id=":10084022212_1_0" index="0" disallow="tram rail_urban rail rail_electric rail_fast ship container cable_car subway aircraft wheelchair scooter drone" speed="13.89" length="8.32" shape="658.66,1674.73 658.34,1666.41"/>
    </edge>
    <edge id=":10084022212_2" function="internal">
        <lane id=":10084022212_2_0" index="0" disallow="tram rail_urban rail rail_electric rail_fast ship container cable_car subway aircraft wheelchair scooter drone" speed="13.89" length="8.24" shape="661.54,1666.33 661.85,1674.57"/>
    </edge>
    <edge id=":10084022212_3" function="internal">
        <lane id=":10084022212_3_0" index="0" allow="pedestrian delivery bicycle" speed="6.75" length="3.29" shape="661.54,1666.33 661.25,1669.08 661.01,1669.55"/>
    </edge>
    <edge id=":10084022212_7" function="internal">
        <lane id=":10084022212_7_0" index="0" allow="pedestrian delivery bicycle" speed="6.75" length="6.46" shape="661.01,1669.55 660.22,1671.08 658.44,1672.31 655.92,1672.79"/>
    </edge>
    <edge id=":10084022212_4" function="internal">
        <lane id=":10084022212_4_0" index="0" allow="pedestrian delivery bicycle" speed="4.89" length="4.61" shape="655.81,1669.59 656.95,1669.36 657.75,1668.75 658.22,1667.77 658.34,1666.41"/>
    </edge>
    <edge id=":10084022212_5" function="internal">
        <lane id=":10084022212_5_0" index="0" allow="pedestrian delivery bicycle" speed="6.50" length="8.88" shape="655.81,1669.59 658.36,1669.83 660.21,1670.74 661.38,1672.32 661.85,1674.57"/>
    </edge>
    <edge id=":10084022212_6" function="internal">
        <lane id=":10084022212_6_0" index="0" allow="pedestrian delivery bicycle" speed="3.65" length="4.67" shape="655.81,1669.59 657.04,1670.35 657.47,1671.14 657.09,1671.95 655.92,1672.79"/>
    </edge>
    <edge id=":10084026823_0" function="internal">
        <lane id=":10084026823_0_0" index="0" disallow="tram rail_urban rail rail_electric rail_fast ship container cable_car subway aircraft wheelchair scooter drone" speed="13.89" length="3.19" shape="660.76,1866.38 657.57,1866.52"/>
    </edge>
    <edge id=":10084026823_1" function="internal">
        <lane id=":10084026823_1_0" index="0" disallow="tram rail_urban rail rail_electric rail_fast ship container cable_car subway aircraft wheelchair scooter drone" speed="13.89" length="3.19" shape="657.44,1863.32 660.63,1863.19"/>
    </edge>
    <edge id=":10084026839_0" function="internal">
        <lane id=":10084026839_0_0" index="0" allow="pedestrian delivery bicycle" speed="5.10" length="5.07" shape="795.10,1863.94 794.83,1862.56 794.20,1861.59 793.20,1861.04 791.85,1860.89"/>
    </edge>
    <edge id=":10084026839_1" function="internal">
        <lane id=":10084026839_1_0" index="0" allow="pedestrian delivery bicycle" speed="6.85" length="10.25" shape="795.10,1863.94 795.34,1861.14 796.42,1859.10 798.34,1857.82 801.10,1857.30"/>
    </edge>
    <edge id=":10084026839_2" function="internal">
        <lane id=":10084026839_2_0" index="0" allow="pedestrian delivery bicycle" speed="3.65" length="4.67" shape="795.10,1863.94 795.83,1862.70 796.61,1862.25 797.43,1862.60 798.30,1863.75"/>
    </edge>
    <edge id=":10084026839_3" function="internal">
        <lane id=":10084026839_3_0" index="0" allow="pedestrian delivery bicycle" speed="5.02" length="5.02" shape="801.24,1860.50 799.88,1860.75 798.94,1861.38 798.41,1862.38 798.30,1863.75"/>
    </edge>
    <edge id=":10084026839_4" function="internal">
        <lane id=":10084026839_4_0" index="0" disallow="tram rail_urban rail rail_electric rail_fast ship container cable_car subway aircraft wheelchair scooter drone" speed="13.89" length="9.40" shape="801.24,1860.50 791.85,1860.89"/>
    </edge>
    <edge id=":10084026839_5" function="internal">
        <lane id=":10084026839_5_0" index="0" disallow="tram rail_urban rail rail_electric rail_fast ship container cable_car subway aircraft wheelchair scooter drone" speed="13.89" length="9.40" shape="791.71,1857.70 801.10,1857.30"/>
    </edge>
    <edge id=":10084026839_6" function="internal">
        <lane id=":10084026839_6_0" index="0" allow="pedestrian delivery bicycle" speed="6.91" length="3.23" shape="791.71,1857.70 794.45,1857.98 794.87,1858.21"/>
    </edge>
    <edge id=":10084026839_7" function="internal">
        <lane id=":10084026839_7_0" index="0" allow="pedestrian delivery bicycle" speed="6.91" length="6.93" shape="794.87,1858.21 796.46,1859.08 797.75,1861.01 798.30,1863.75"/>
    </edge>
    <edge id=":10084026841_0" function="internal">
        <lane id=":10084026841_0_0" index="0" allow="pedestrian delivery bicycle" speed="3.65" length="4.67" shape="640.46,1673.32 639.23,1672.56 638.80,1671.78 639.17,1670.96 640.34,1670.12"/>
    </edge>
    <edge id=":10084026862_0" function="internal">
        <lane id=":10084026862_0_0" index="0" allow="pedestrian delivery bicycle" speed="5.56" length="6.32" shape="655.72,1672.80 649.41,1673.01"/>
    </edge>
    <edge id=":10084026862_1" function="internal">
        <lane id=":10084026862_1_0" index="0" allow="pedestrian delivery bicycle" speed="3.65" length="1.44" shape="655.72,1672.80 654.49,1672.04"/>
    </edge>
    <edge id=":10084026862_4" function="internal">
        <lane id=":10084026862_4_0" index="0" allow="pedestrian delivery bicycle" speed="3.65" length="3.23" shape="654.49,1672.04 654.07,1671.25 654.44,1670.44 655.61,1669.60"/>
    </edge>
    <edge id=":10084026862_2" function="internal">
        <lane id=":10084026862_2_0" index="0" allow="pedestrian delivery bicycle" speed="5.56" length="6.32" shape="649.30,1669.81 655.61,1669.60"/>
    </edge>
    <edge id=":10084026862_3" function="internal">
        <lane id=":10084026862_3_0" index="0" allow="pedestrian delivery bicycle" speed="3.65" length="1.44" shape="649.30,1669.81 650.52,1670.57"/>
    </edge>
    <edge id=":10084026862_5" function="internal">
        <lane id=":10084026862_5_0" index="0" allow="pedestrian delivery bicycle" speed="3.65" length="3.23" shape="650.52,1670.57 650.95,1671.36 650.58,1672.17 649.41,1673.01"/>
    </edge>
    <edge id=":10084026870_0" function="internal">
        <lane id=":10084026870_0_0" index="0" allow="pedestrian delivery bicycle" speed="3.65" length="4.67" shape="800.36,1898.58 799.63,1899.82 798.85,1900.27 798.03,1899.92 797.16,1898.76"/>
    </edge>
    <edge id=":10084026883_0" function="internal">
        <lane id=":10084026883_0_0" index="0" allow="pedestrian delivery bicycle" speed="3.65" length="4.67" shape="733.78,1796.68 735.00,1797.45 735.42,1798.24 735.04,1799.05 733.86,1799.88"/>
    </edge>
    <edge id=":10084026886_0" function="internal">
        <lane id=":10084026886_0_0" index="0" disallow="tram rail_urban rail rail_electric rail_fast ship container cable_car subway aircraft wheelchair scooter drone" speed="13.89" length="9.40" shape="662.56,1804.89 662.26,1795.50"/>
    </edge>
    <edge id=":10084026886_1" function="internal">
        <lane id=":10084026886_1_0" index="0" allow="pedestrian delivery bicycle" speed="6.86" length="3.27" shape="662.56,1804.89 662.87,1802.12 663.10,1801.70"/>
    </edge>
    <edge id=":10084026886_7" function="internal">
        <lane id=":10084026886_7_0" index="0" allow="pedestrian delivery bicycle" speed="6.86" length="6.91" shape="663.10,1801.70 663.99,1800.11 665.93,1798.87 668.68,1798.41"/>
    </edge>
    <edge id=":10084026886_2" function="internal">
        <lane id=":10084026886_2_0" index="0" allow="pedestrian delivery bicycle" speed="5.04" length="5.01" shape="668.77,1801.60 667.41,1801.83 666.46,1802.44 665.91,1803.43 665.76,1804.79"/>
    </edge>
    <edge id=":10084026886_3" function="internal">
        <lane id=":10084026886_3_0" index="0" allow="pedestrian delivery bicycle" speed="6.87" length="10.16" shape="668.77,1801.60 666.00,1801.29 663.99,1800.16 662.74,1798.23 662.26,1795.50"/>
    </edge>
    <edge id=":10084026886_4" function="internal">
        <lane id=":10084026886_4_0" index="0" allow="pedestrian delivery bicycle" speed="3.65" length="4.67" shape="668.77,1801.60 667.55,1800.84 667.12,1800.05 667.50,1799.24 668.68,1798.41"/>
    </edge>
    <edge id=":10084026886_5" function="internal">
        <lane id=":10084026886_5_0" index="0" allow="pedestrian delivery bicycle" speed="5.06" length="5.02" shape="665.46,1795.40 665.70,1796.74 666.32,1797.70 667.31,1798.25 668.68,1798.41"/>
    </edge>
    <edge id=":10084026886_6" function="internal">
        <lane id=":10084026886_6_0" index="0" disallow="tram rail_urban rail rail_electric rail_fast ship container cable_car subway aircraft wheelchair scooter drone" speed="13.89" length="9.40" shape="665.46,1795.40 665.76,1804.79"/>
    </edge>
    <edge id=":10121789739_0" function="internal">
        <lane id=":10121789739_0_0" index="0" disallow="tram rail_urban rail rail_electric rail_fast ship container cable_car subway aircraft wheelchair scooter drone" speed="16.67" length="0.23" shape="804.77,1052.90 804.75,1052.70"/>
        <lane id=":10121789739_0_1" index="1" disallow="tram rail_urban rail rail_electric rail_fast ship container cable_car subway aircraft wheelchair scooter drone" speed="16.67" length="0.23" shape="807.96,1052.65 807.93,1052.39"/>
    </edge>
    <edge id=":10121789739_2" function="internal">
        <lane id=":10121789739_2_0" index="0" disallow="tram rail_urban rail rail_electric rail_fast ship container cable_car subway aircraft wheelchair scooter drone" speed="16.67" length="0.34" shape="814.30,1051.77 814.34,1052.14"/>
        <lane id=":10121789739_2_1" index="1" disallow="tram rail_urban rail rail_electric rail_fast ship container cable_car subway aircraft wheelchair scooter drone" speed="16.67" length="0.34" shape="811.12,1052.08 811.15,1052.39"/>
    </edge>
    <edge id=":1012738230_0" function="internal">
        <lane id=":1012738230_0_0" index="0" allow="pedestrian delivery bicycle" speed="5.09" length="5.00" shape="1387.53,1748.25 1386.18,1748.50 1385.22,1749.12 1384.66,1750.10 1384.49,1751.44"/>
    </edge>
    <edge id=":1012738230_1" function="internal">
        <lane id=":1012738230_1_0" index="0" allow="pedestrian delivery bicycle" speed="3.65" length="4.67" shape="1387.53,1748.25 1386.29,1747.50 1385.86,1746.72 1386.22,1745.90 1387.39,1745.05"/>
    </edge>
    <edge id=":1012738230_2" function="internal">
        <lane id=":1012738230_2_0" index="0" allow="pedestrian delivery bicycle" speed="5.06" length="4.98" shape="1384.13,1742.12 1384.40,1743.45 1385.03,1744.39 1386.03,1744.92 1387.39,1745.05"/>
    </edge>
    <edge id=":1012738230_3" function="internal">
        <lane id=":1012738230_3_0" index="0" disallow="tram rail_urban rail rail_electric rail_fast ship container cable_car subway aircraft wheelchair scooter drone" speed="16.67" length="9.19" shape="1384.13,1742.12 1384.49,1751.44"/>
        <lane id=":1012738230_3_1" index="1" disallow="tram rail_urban rail rail_electric rail_fast ship container cable_car subway aircraft wheelchair scooter drone" speed="16.67" length="9.19" shape="1380.93,1742.31 1381.29,1751.49"/>
        <lane id=":1012738230_3_2" index="2" disallow="tram rail_urban rail rail_electric rail_fast ship container cable_car subway aircraft wheelchair scooter drone" speed="16.67" length="9.19" shape="1377.74,1742.50 1378.09,1751.55"/>
    </edge>
    <edge id=":1025256935_0" function="internal">
        <lane id=":1025256935_0_0" index="0" disallow="tram rail_urban rail rail_electric rail_fast ship container cable_car subway aircraft wheelchair scooter drone" speed="16.67" length="9.18" shape="1379.01,1652.87 1379.34,1661.89"/>
        <lane id=":1025256935_0_1" index="1" disallow="tram rail_urban rail rail_electric rail_fast ship container cable_car subway aircraft wheelchair scooter drone" speed="16.67" length="9.18" shape="1375.81,1652.91 1376.15,1662.08"/>
        <lane id=":1025256935_0_2" index="2" disallow="tram rail_urban rail rail_electric rail_fast ship container cable_car subway aircraft wheelchair scooter drone" speed="16.67" length="9.18" shape="1372.61,1652.94 1372.95,1662.27"/>
    </edge>
    <edge id=":1025256935_3" function="internal">
        <lane id=":1025256935_3_0" index="0" disallow="tram rail_urban rail rail_electric rail_fast ship container cable_car subway aircraft wheelchair scooter drone" speed="6.26" length="7.77" shape="1372.61,1652.94 1372.45,1655.67 1371.90,1657.65 1370.96,1658.90 1369.63,1659.41"/>
    </edge>
    <edge id=":1025256935_4" function="internal">
        <lane id=":1025256935_4_0" index="0" disallow="tram rail_urban rail rail_electric rail_fast ship container cable_car subway aircraft wheelchair scooter drone" speed="6.84" length="10.31" shape="1369.34,1656.22 1372.18,1656.37 1374.26,1657.40 1375.58,1659.30 1376.15,1662.08"/>
        <lane id=":1025256935_4_1" index="1" disallow="tram rail_urban rail rail_electric rail_fast ship container cable_car subway aircraft wheelchair scooter drone" speed="6.05" length="7.84" shape="1369.34,1656.22 1370.78,1656.49 1371.86,1657.59 1372.59,1659.51 1372.95,1662.27"/>
    </edge>
    <edge id=":1025256935_6" function="internal">
        <lane id=":1025256935_6_0" index="0" disallow="tram rail_urban rail rail_electric rail_fast ship container cable_car subway aircraft wheelchair scooter drone" speed="3.65" length="4.67" shape="1369.34,1656.22 1370.61,1656.91 1371.08,1657.67 1370.75,1658.50 1369.63,1659.41"/>
    </edge>
    <edge id=":10281697281_0" function="internal">
        <lane id=":10281697281_0_0" index="0" allow="pedestrian delivery bicycle" speed="5.31" length="5.32" shape="1768.67,1507.43 1767.37,1507.72 1766.42,1508.42 1765.84,1509.54 1765.62,1511.07"/>
    </edge>
    <edge id=":10281697281_1" function="internal">
        <lane id=":10281697281_1_0" index="0" disallow="tram rail_urban rail rail_electric rail_fast ship container cable_car subway aircraft wheelchair scooter drone" speed="16.67" length="9.42" shape="1768.67,1507.43 1759.27,1507.95"/>
        <lane id=":10281697281_1_1" index="1" disallow="tram rail_urban rail rail_electric rail_fast ship container cable_car subway aircraft wheelchair scooter drone" speed="16.67" length="9.42" shape="1768.49,1504.23 1759.09,1504.76"/>
    </edge>
    <edge id=":10281697281_3" function="internal">
        <lane id=":10281697281_3_0" index="0" disallow="tram rail_urban rail rail_electric rail_fast ship container cable_car subway aircraft wheelchair scooter drone" speed="16.67" length="9.42" shape="1758.55,1495.17 1767.95,1494.65"/>
        <lane id=":10281697281_3_1" index="1" disallow="tram rail_urban rail rail_electric rail_fast ship container cable_car subway aircraft wheelchair scooter drone" speed="16.67" length="9.42" shape="1758.73,1498.37 1768.13,1497.84"/>
        <lane id=":10281697281_3_2" index="2" disallow="tram rail_urban rail rail_electric rail_fast ship container cable_car subway aircraft wheelchair scooter drone" speed="16.67" length="9.42" shape="1758.91,1501.56 1768.31,1501.04"/>
    </edge>
    <edge id=":10281697281_6" function="internal">
        <lane id=":10281697281_6_0" index="0" allow="pedestrian delivery bicycle" speed="7.58" length="3.05" shape="1758.91,1501.56 1761.93,1502.01"/>
    </edge>
    <edge id=":10281697281_11" function="internal">
        <lane id=":10281697281_11_0" index="0" allow="pedestrian delivery bicycle" speed="7.58" length="10.32" shape="1761.93,1502.01 1764.05,1503.75 1765.28,1506.77 1765.62,1511.07"/>
    </edge>
    <edge id=":10281697281_7" function="internal">
        <lane id=":10281697281_7_0" index="0" allow="pedestrian delivery bicycle" speed="4.96" length="5.09" shape="1762.42,1511.00 1762.25,1509.60 1761.67,1508.63 1760.68,1508.08 1759.27,1507.95"/>
    </edge>
    <edge id=":10281697281_8" function="internal">
        <lane id=":10281697281_8_0" index="0" allow="pedestrian delivery bicycle" speed="8.58" length="15.51" shape="1762.42,1511.00 1762.89,1505.36 1763.99,1501.28 1765.74,1498.78 1768.13,1497.84"/>
        <lane id=":10281697281_8_1" index="1" allow="pedestrian delivery bicycle" speed="7.84" length="12.78" shape="1762.42,1511.00 1762.87,1506.76 1764.00,1503.69 1765.81,1501.78 1768.31,1501.04"/>
    </edge>
    <edge id=":10281697281_10" function="internal">
        <lane id=":10281697281_10_0" index="0" allow="pedestrian delivery bicycle" speed="3.65" length="4.67" shape="1762.42,1511.00 1763.25,1509.82 1764.06,1509.44 1764.85,1509.85 1765.62,1511.07"/>
    </edge>
    <edge id=":10281697282_0" function="internal">
        <lane id=":10281697282_0_0" index="0" allow="pedestrian delivery bicycle" speed="5.56" length="5.02" shape="1765.61,1511.81 1765.52,1516.83"/>
    </edge>
    <edge id=":10281697282_1" function="internal">
        <lane id=":10281697282_1_0" index="0" allow="pedestrian delivery bicycle" speed="3.65" length="1.44" shape="1765.61,1511.81 1764.78,1512.99"/>
    </edge>
    <edge id=":10281697282_4" function="internal">
        <lane id=":10281697282_4_0" index="0" allow="pedestrian delivery bicycle" speed="3.65" length="3.23" shape="1764.78,1512.99 1763.97,1513.37 1763.18,1512.96 1762.41,1511.74"/>
    </edge>
    <edge id=":10281697282_2" function="internal">
        <lane id=":10281697282_2_0" index="0" allow="pedestrian delivery bicycle" speed="5.56" length="5.06" shape="1762.32,1516.79 1762.41,1511.74"/>
    </edge>
    <edge id=":10281697282_3" function="internal">
        <lane id=":10281697282_3_0" index="0" allow="pedestrian delivery bicycle" speed="3.65" length="1.44" shape="1762.32,1516.79 1763.14,1515.60"/>
    </edge>
    <edge id=":10281697282_5" function="internal">
        <lane id=":10281697282_5_0" index="0" allow="pedestrian delivery bicycle" speed="3.65" length="3.23" shape="1763.14,1515.60 1763.94,1515.21 1764.74,1515.62 1765.52,1516.83"/>
    </edge>
    <edge id=":10281697286_0" function="internal">
        <lane id=":10281697286_0_0" index="0" allow="pedestrian delivery bicycle" speed="3.65" length="4.67" shape="1632.03,1571.96 1630.77,1571.27 1630.31,1570.50 1630.64,1569.67 1631.77,1568.78"/>
    </edge>
    <edge id=":10281697291_0" function="internal">
        <lane id=":10281697291_0_0" index="0" allow="pedestrian delivery bicycle" speed="3.65" length="4.67" shape="2151.03,1705.54 2152.21,1706.38 2152.58,1707.19 2152.15,1707.98 2150.93,1708.74"/>
    </edge>
    <edge id=":10281697304_0" function="internal">
        <lane id=":10281697304_0_0" index="0" disallow="tram rail_urban rail rail_electric rail_fast ship container cable_car subway aircraft wheelchair scooter drone" speed="16.67" length="0.29" shape="1625.52,1515.49 1625.23,1515.51"/>
        <lane id=":10281697304_0_1" index="1" disallow="tram rail_urban rail rail_electric rail_fast ship container cable_car subway aircraft wheelchair scooter drone" speed="16.67" length="0.29" shape="1625.34,1512.30 1625.05,1512.32"/>
    </edge>
    <edge id=":10281697304_2" function="internal">
        <lane id=":10281697304_2_0" index="0" disallow="tram rail_urban rail rail_electric rail_fast ship container cable_car subway aircraft wheelchair scooter drone" speed="16.67" length="0.31" shape="1624.48,1502.73 1624.80,1502.71"/>
        <lane id=":10281697304_2_1" index="1" disallow="tram rail_urban rail rail_electric rail_fast ship container cable_car subway aircraft wheelchair scooter drone" speed="16.67" length="0.31" shape="1624.67,1505.93 1624.98,1505.91"/>
        <lane id=":10281697304_2_2" index="2" disallow="tram rail_urban rail rail_electric rail_fast ship container cable_car subway aircraft wheelchair scooter drone" speed="16.67" length="0.31" shape="1624.86,1509.12 1625.16,1509.10"/>
    </edge>
    <edge id=":10281713113_0" function="internal">
        <lane id=":10281713113_0_0" index="0" disallow="tram rail_urban rail rail_electric rail_fast ship container cable_car subway aircraft wheelchair scooter drone" speed="16.67" length="0.10" shape="1703.35,1511.10 1703.35,1511.10"/>
        <lane id=":10281713113_0_1" index="1" disallow="tram rail_urban rail rail_electric rail_fast ship container cable_car subway aircraft wheelchair scooter drone" speed="16.67" length="0.10" shape="1703.17,1507.91 1703.17,1507.91"/>
    </edge>
    <edge id=":10281713113_2" function="internal">
        <lane id=":10281713113_2_0" index="0" disallow="tram rail_urban rail rail_electric rail_fast ship container cable_car subway aircraft wheelchair scooter drone" speed="16.67" length="0.10" shape="1702.63,1498.32 1702.63,1498.32"/>
        <lane id=":10281713113_2_1" index="1" disallow="tram rail_urban rail rail_electric rail_fast ship container cable_car subway aircraft wheelchair scooter drone" speed="16.67" length="0.10" shape="1702.81,1501.52 1702.81,1501.52"/>
        <lane id=":10281713113_2_2" index="2" disallow="tram rail_urban rail rail_electric rail_fast ship container cable_car subway aircraft wheelchair scooter drone" speed="16.67" length="0.10" shape="1702.99,1504.71 1702.99,1504.71"/>
    </edge>
    <edge id=":10281713114_0" function="internal">
        <lane id=":10281713114_0_0" index="0" allow="pedestrian delivery bicycle" speed="5.02" length="5.02" shape="1691.03,1404.77 1690.79,1403.41 1690.17,1402.46 1689.17,1401.93 1687.80,1401.80"/>
    </edge>
    <edge id=":10281713114_1" function="internal">
        <lane id=":10281713114_1_0" index="0" allow="pedestrian delivery bicycle" speed="6.91" length="10.17" shape="1691.03,1404.77 1691.32,1401.98 1692.42,1399.95 1694.32,1398.66 1697.02,1398.12"/>
    </edge>
    <edge id=":10281713114_2" function="internal">
        <lane id=":10281713114_2_0" index="0" allow="pedestrian delivery bicycle" speed="3.65" length="4.67" shape="1691.03,1404.77 1691.79,1403.55 1692.57,1403.12 1693.39,1403.49 1694.22,1404.67"/>
    </edge>
    <edge id=":10281713114_3" function="internal">
        <lane id=":10281713114_3_0" index="0" allow="pedestrian delivery bicycle" speed="5.10" length="5.08" shape="1697.19,1401.32 1695.85,1401.59 1694.91,1402.24 1694.37,1403.26 1694.22,1404.67"/>
    </edge>
    <edge id=":10281713114_4" function="internal">
        <lane id=":10281713114_4_0" index="0" disallow="tram rail_urban rail rail_electric rail_fast ship container cable_car subway aircraft wheelchair scooter drone" speed="13.89" length="9.40" shape="1697.19,1401.32 1687.80,1401.80"/>
    </edge>
    <edge id=":10281713114_5" function="internal">
        <lane id=":10281713114_5_0" index="0" disallow="tram rail_urban rail rail_electric rail_fast ship container cable_car subway aircraft wheelchair scooter drone" speed="13.89" length="9.40" shape="1687.63,1398.61 1697.02,1398.12"/>
    </edge>
    <edge id=":10281713114_6" function="internal">
        <lane id=":10281713114_6_0" index="0" allow="pedestrian delivery bicycle" speed="6.85" length="3.28" shape="1687.63,1398.61 1690.44,1398.86 1690.85,1399.08"/>
    </edge>
    <edge id=":10281713114_7" function="internal">
        <lane id=":10281713114_7_0" index="0" allow="pedestrian delivery bicycle" speed="6.85" length="6.97" shape="1690.85,1399.08 1692.47,1399.96 1693.73,1401.89 1694.22,1404.67"/>
    </edge>
    <edge id=":10281713121_0" function="internal">
        <lane id=":10281713121_0_0" index="0" allow="pedestrian delivery bicycle" speed="5.25" length="5.25" shape="1607.73,1409.34 1607.38,1407.87 1606.69,1406.85 1605.68,1406.26 1604.35,1406.12"/>
    </edge>
    <edge id=":10281713121_1" function="internal">
        <lane id=":10281713121_1_0" index="0" allow="pedestrian delivery bicycle" speed="6.81" length="10.47" shape="1607.73,1409.34 1607.82,1406.45 1608.82,1404.33 1610.74,1403.00 1613.58,1402.44"/>
    </edge>
    <edge id=":10281713121_2" function="internal">
        <lane id=":10281713121_2_0" index="0" allow="pedestrian delivery bicycle" speed="3.65" length="4.67" shape="1607.73,1409.34 1608.39,1408.06 1609.14,1407.57 1609.98,1407.88 1610.91,1408.98"/>
    </edge>
    <edge id=":10281713121_3" function="internal">
        <lane id=":10281713121_3_0" index="0" allow="pedestrian delivery bicycle" speed="4.98" length="5.07" shape="1613.75,1405.63 1612.37,1405.91 1611.44,1406.55 1610.95,1407.58 1610.91,1408.98"/>
    </edge>
    <edge id=":10281713121_4" function="internal">
        <lane id=":10281713121_4_0" index="0" disallow="tram rail_urban rail rail_electric rail_fast ship container cable_car subway aircraft wheelchair scooter drone" speed="13.89" length="9.41" shape="1613.75,1405.63 1604.35,1406.12"/>
    </edge>
    <edge id=":10281713121_5" function="internal">
        <lane id=":10281713121_5_0" index="0" disallow="tram rail_urban rail rail_electric rail_fast ship container cable_car subway aircraft wheelchair scooter drone" speed="13.89" length="9.41" shape="1604.18,1402.92 1613.58,1402.44"/>
    </edge>
    <edge id=":10281713121_6" function="internal">
        <lane id=":10281713121_6_0" index="0" allow="pedestrian delivery bicycle" speed="7.02" length="3.15" shape="1604.18,1402.92 1606.86,1403.19 1607.26,1403.41"/>
    </edge>
    <edge id=":10281713121_7" function="internal">
        <lane id=":10281713121_7_0" index="0" allow="pedestrian delivery bicycle" speed="7.02" length="7.04" shape="1607.26,1403.41 1608.87,1404.28 1610.22,1406.21 1610.91,1408.98"/>
    </edge>
    <edge id=":10281713122_0" function="internal">
        <lane id=":10281713122_0_0" index="0" disallow="tram rail_urban rail rail_electric rail_fast ship container cable_car subway aircraft wheelchair scooter drone" speed="3.65" length="4.67" shape="1728.95,1396.48 1730.19,1397.22 1730.63,1398.00 1730.27,1398.82 1729.11,1399.68"/>
    </edge>
    <edge id=":10281713123_0" function="internal">
        <lane id=":10281713123_0_0" index="0" disallow="tram rail_urban rail rail_electric rail_fast ship container cable_car subway aircraft wheelchair scooter drone" speed="13.89" length="14.40" shape="1583.34,1412.96 1582.15,1398.61"/>
    </edge>
    <edge id=":10281713123_1" function="internal">
        <lane id=":10281713123_1_0" index="0" disallow="tram rail_urban rail rail_electric rail_fast ship container cable_car subway aircraft wheelchair scooter drone" speed="7.95" length="4.09" shape="1583.34,1412.96 1583.57,1409.03 1583.64,1408.89"/>
    </edge>
    <edge id=":10281713123_2" function="internal">
        <lane id=":10281713123_2_0" index="0" disallow="tram rail_urban rail rail_electric rail_fast ship container cable_car subway aircraft wheelchair scooter drone" speed="3.65" length="1.44" shape="1583.34,1412.96 1584.04,1411.70"/>
    </edge>
    <edge id=":10281713123_9" function="internal">