<?xml version="1.0" encoding="UTF-8"?>

<!-- generated on 2026-02-19 20:16:36.105647 by Eclipse SUMO randomTrips.py v1_26_0+0000-fa7df22d7f1
<configuration>
    <net-file value=".\data\networks\city_001.net.xml"/>
    <output-trip-file value=".\data\routes\day.rou.xml"/>
    <prefix value="day_"/>
    <begin value="36000.0"/>
    <end value="57600.0"/>
    <period value="1.2"/>
</configuration>
-->

<routes xmlns:xsi="http://www.w3.org/2001/XMLSchema-instance" xsi:noNamespaceSchemaLocation="http://sumo.dlr.de/xsd/routes_file.xsd">
    <trip id="day_0" depart="36000.00" from="-53103899" to="-51095934#5"/>
    <trip id="day_1" depart="36001.20" from="50831915#9" to="49830666#7"/>
    <trip id="day_2" depart="36002.40" from="580760138#2" to="-25684551#8"/>
    <trip id="day_3" depart="36003.60" from="-88247764#4" to="-25486114#0"/>
    <trip id="day_4" depart="36004.80" from="-51095934#12" to="192987238#4"/>
    <trip id="day_5" depart="36006.00" from="-186475564#1" to="-51095934#0"/>
    <trip id="day_6" depart="36007.20" from="477271454" to="25684551#1"/>
    <trip id="day_7" depart="36008.40" from="-51095934#13" to="277523407#0"/>
    <trip id="day_8" depart="36009.60" from="52152425#1" to="-1124346622#0"/>
    <trip id="day_9" depart="36010.80" from="51543398#1" to="50831914#1"/>
    <trip id="day_10" depart="36012.00" from="-54985279#5" to="-50831915#2"/>
    <trip id="day_11" depart="36013.20" from="67549357#1" to="-580760138#5"/>
    <trip id="day_12" depart="36014.40" from="-25684551#9" to="-25684557#2"/>
    <trip id="day_13" depart="36015.60" from="54985260#14" to="37177801#10"/>
    <trip id="day_14" depart="36016.80" from="52152425#0" to="50831915#9"/>
    <trip id="day_15" depart="36018.00" from="25504350#3" to="88247764#0"/>
    <trip id="day_16" depart="36019.20" from="-622102031#1" to="25684551#3"/>
    <trip id="day_17" depart="36020.40" from="53369130#2" to="37177801#2"/>
    <trip id="day_18" depart="36021.60" from="54985260#6" to="25684557#3"/>
    <trip id="day_19" depart="36022.80" from="50449361#6" to="-25504350#1"/>
    <trip id="day_20" depart="36024.00" from="-51095934#2" to="-54985260#2"/>
    <trip id="day_21" depart="36025.20" from="-25684551#4" to="-51095934#9"/>
    <trip id="day_22" depart="36026.40" from="-25684557#3" to="-54985260#12"/>
    <trip id="day_23" depart="36027.60" from="-622102030#2" to="-51095934#13"/>
    <trip id="day_24" depart="36028.80" from="-53103882#1" to="622102031#4"/>
    <trip id="day_25" depart="36030.00" from="37177801#9" to="37177801#12"/>
    <trip id="day_26" depart="36031.20" from="-50831915#6" to="50831915#9"/>
    <trip id="day_27" depart="36032.40" from="-50831915#3" to="-622102031#6"/>
    <trip id="day_28" depart="36033.60" from="88247764#5" to="477271454"/>
    <trip id="day_29" depart="36034.80" from="25684551#10" to="50449361#3"/>
    <trip id="day_30" depart="36036.00" from="54985260#13" to="51095934#15"/>
    <trip id="day_31" depart="36037.20" from="-51095934#2" to="-25486115#0"/>
    <trip id="day_32" depart="36038.40" from="-54985260#6" to="-54985260#0"/>
    <trip id="day_33" depart="36039.60" from="-51095934#1" to="622102031#6"/>
    <trip id="day_34" depart="36040.80" from="54985279#2" to="-54985279#2"/>
    <trip id="day_35" depart="36042.00" from="477271462#1" to="-88247764#0"/>
    <trip id="day_36" depart="36043.20" from="620932850#3" to="186475564#2"/>
    <trip id="day_37" depart="36044.40" from="-53103882#0" to="-52152425#1"/>
    <trip id="day_38" depart="36045.60" from="25684551#3" to="-53369130#1"/>
    <trip id="day_39" depart="36046.80" from="25684557#2" to="580760138#3"/>
    <trip id="day_40" depart="36048.00" from="-64973297#1" to="-51095934#3"/>
    <trip id="day_41" depart="36049.20" from="88247764#9" to="25486114#1"/>
    <trip id="day_42" depart="36050.40" from="-25684551#9" to="-25504350#2"/>
    <trip id="day_43" depart="36051.60" from="-477271454" to="37177801#5"/>
    <trip id="day_44" depart="36052.80" from="51095934#7" to="-88247764#9"/>
    <trip id="day_45" depart="36054.00" from="-25504350#6" to="-622102031#7"/>
    <trip id="day_46" depart="36055.20" from="88247764#8" to="25504350#4"/>
    <trip id="day_47" depart="36056.40" from="829563410#2" to="54985260#4"/>
    <trip id="day_48" depart="36057.60" from="-1124346622#2" to="50831915#5"/>
    <trip id="day_49" depart="36058.80" from="49830666#5" to="25504350#7"/>
    <trip id="day_50" depart="36060.00" from="-53103882#1" to="477271462#0"/>
    <trip id="day_51" depart="36061.20" from="-477271462#0" to="1124346622#2"/>
    <trip id="day_52" depart="36062.40" from="130503625#2" to="64973297#1"/>
    <trip id="day_53" depart="36063.60" from="54985279#1" to="-53369130#1"/>
    <trip id="day_54" depart="36064.80" from="192981425#2" to="-50831916#1"/>
    <trip id="day_55" depart="36066.00" from="620932850#3" to="54985260#7"/>
    <trip id="day_56" depart="36067.20" from="-54985260#14" to="477271454"/>
    <trip id="day_57" depart="36068.40" from="277523407#2" to="-50831915#10"/>
    <trip id="day_58" depart="36069.60" from="51095934#1" to="25684440#0"/>
    <trip id="day_59" depart="36070.80" from="51095934#2" to="25504350#5"/>
    <trip id="day_60" depart="36072.00" from="-1075767203#0" to="-580760138#0"/>
    <trip id="day_61" depart="36073.20" from="-130503625#2" to="622102031#1"/>
    <trip id="day_62" depart="36074.40" from="54985279#3" to="53369130#2"/>
    <trip id="day_63" depart="36075.60" from="-54985260#3" to="-25504350#6"/>
    <trip id="day_64" depart="36076.80" from="54985279#2" to="626880271#0"/>
    <trip id="day_65" depart="36078.00" from="-25684551#7" to="192981425#0"/>
    <trip id="day_66" depart="36079.20" from="-25684551#1" to="51095934#1"/>
    <trip id="day_67" depart="36080.40" from="51095934#10" to="-50449361#1"/>
    <trip id="day_68" depart="36081.60" from="192981424#0" to="25684551#2"/>
    <trip id="day_69" depart="36082.80" from="-53103882#0" to="54985260#8"/>
    <trip id="day_70" depart="36084.00" from="-88247764#4" to="-51095934#13"/>
    <trip id="day_71" depart="36085.20" from="25504350#4" to="50831915#9"/>
    <trip id="day_72" depart="36086.40" from="-51095930#0" to="-54985279#1"/>
    <trip id="day_73" depart="36087.60" from="88247764#8" to="477271462#3"/>
    <trip id="day_74" depart="36088.80" from="1075767203#0" to="25504350#0"/>
    <trip id="day_75" depart="36090.00" from="-477271462#3" to="-51095934#5"/>
    <trip id="day_76" depart="36091.20" from="-51095934#3" to="-51095934#4"/>
    <trip id="day_77" depart="36092.40" from="-25684551#10" to="37177801#7"/>
    <trip id="day_78" depart="36093.60" from="-51095934#2" to="580760138#6"/>
    <trip id="day_79" depart="36094.80" from="54985260#5" to="-25684551#2"/>
    <trip id="day_80" depart="36096.00" from="-51095934#6" to="49830666#4"/>
    <trip id="day_81" depart="36097.20" from="-51095934#10" to="-50449361#3"/>
    <trip id="day_82" depart="36098.40" from="622102031#4" to="25684557#0"/>
    <trip id="day_83" depart="36099.60" from="52152425#0" to="-51095930#0"/>
    <trip id="day_84" depart="36100.80" from="-25684557#1" to="1124346622#0"/>
    <trip id="day_85" depart="36102.00" from="-88247764#4" to="192981424#0"/>
    <trip id="day_86" depart="36103.20" from="50831915#6" to="49830666#6"/>
    <trip id="day_87" depart="36104.40" from="88247764#3" to="-25684557#3"/>
    <trip id="day_88" depart="36105.60" from="-829563410#0" to="-580760138#6"/>
    <trip id="day_89" depart="36106.80" from="54985260#6" to="-52152425#2"/>
    <trip id="day_90" depart="36108.00" from="-88247764#4" to="-54985260#12"/>
    <trip id="day_91" depart="36109.20" from="-51510530" to="622102030#3"/>
    <trip id="day_92" depart="36110.40" from="1124346622#0" to="54985260#4"/>
    <trip id="day_93" depart="36111.60" from="25684487" to="-25504350#3"/>
    <trip id="day_94" depart="36112.80" from="88247764#9" to="54985260#1"/>
    <trip id="day_95" depart="36114.00" from="829563410#2" to="622102031#0"/>
    <trip id="day_96" depart="36115.20" from="54985260#15" to="-50831915#6"/>
    <trip id="day_97" depart="36116.40" from="192981424#4" to="-51095934#14"/>
    <trip id="day_98" depart="36117.60" from="-829563410#0" to="-25504350#6"/>
    <trip id="day_99" depart="36118.80" from="-622102031#1" to="88247764#4"/>
    <trip id="day_100" depart="36120.00" from="-53103882#0" to="51095934#4"/>
    <trip id="day_101" depart="36121.20" from="170083666#0" to="-88247764#9"/>
    <trip id="day_102" depart="36122.40" from="67549357#1" to="88247764#8"/>
    <trip id="day_103" depart="36123.60" from="25684551#10" to="50831915#5"/>
    <trip id="day_104" depart="36124.80" from="-50831915#1" to="-54985260#5"/>
    <trip id="day_105" depart="36126.00" from="829563410#1" to="25684557#4"/>
    <trip id="day_106" depart="36127.20" from="25504350#5" to="50831919#1"/>
    <trip id="day_107" depart="36128.40" from="192987238#0" to="54985260#16"/>
    <trip id="day_108" depart="36129.60" from="-50831915#10" to="744871126#0"/>
    <trip id="day_109" depart="36130.80" from="-25684551#5" to="-50831918#0"/>
    <trip id="day_110" depart="36132.00" from="262767663#0" to="49830666#7"/>
    <trip id="day_111" depart="36133.20" from="-51095934#5" to="-477271462#4"/>
    <trip id="day_112" depart="36134.40" from="580760138#1" to="-52152425#1"/>
    <trip id="day_113" depart="36135.60" from="262767663#0" to="37177801#2"/>
    <trip id="day_114" depart="36136.80" from="-88247764#3" to="25684557#5"/>
    <trip id="day_115" depart="36138.00" from="25486115#2" to="622102031#3"/>
    <trip id="day_116" depart="36139.20" from="-51095930#2" to="50831915#4"/>
    <trip id="day_117" depart="36140.40" from="-51095934#6" to="-88247764#0"/>
    <trip id="day_118" depart="36141.60" from="49830666#1" to="-54985260#7"/>
    <trip id="day_119" depart="36142.80" from="-54985260#6" to="51095930#0"/>
    <trip id="day_120" depart="36144.00" from="-25684551#2" to="186475564#2"/>
    <trip id="day_121" depart="36145.20" from="88247764#9" to="88247764#8"/>
    <trip id="day_122" depart="36146.40" from="-25684551#2" to="-51095934#14"/>
    <trip id="day_123" depart="36147.60" from="-53103882#0" to="622102031#3"/>
    <trip id="day_124" depart="36148.80" from="54985279#3" to="54985279#1"/>
    <trip id="day_125" depart="36150.00" from="-622102030#2" to="-50831915#3"/>
    <trip id="day_126" depart="36151.20" from="54985260#1" to="50831915#1"/>
    <trip id="day_127" depart="36152.40" from="477271462#1" to="-1124346622#1"/>
    <trip id="day_128" depart="36153.60" from="53103893#0" to="-54985260#6"/>
    <trip id="day_129" depart="36154.80" from="477271462#4" to="622102031#5"/>
    <trip id="day_130" depart="36156.00" from="-50449361#3" to="-477271462#2"/>
    <trip id="day_131" depart="36157.20" from="-25684557#5" to="25684551#4"/>
    <trip id="day_132" depart="36158.40" from="-53103893#1" to="37177801#11"/>
    <trip id="day_133" depart="36159.60" from="50831915#10" to="-51095934#10"/>
    <trip id="day_134" depart="36160.80" from="192981424#6" to="580760138#6"/>
    <trip id="day_135" depart="36162.00" from="54985260#14" to="-25684557#0"/>
    <trip id="day_136" depart="36163.20" from="-88247764#4" to="-54985260#12"/>
    <trip id="day_137" depart="36164.40" from="-1075767203#1" to="51095934#13"/>
    <trip id="day_138" depart="36165.60" from="50831916#0" to="25684551#3"/>
    <trip id="day_139" depart="36166.80" from="-88247764#6" to="-1124346622#1"/>
    <trip id="day_140" depart="36168.00" from="-25684551#3" to="54985279#2"/>
    <trip id="day_141" depart="36169.20" from="580760138#6" to="25684551#10"/>
    <trip id="day_142" depart="36170.40" from="54985260#1" to="25684557#5"/>
    <trip id="day_143" depart="36171.60" from="-50831914#1" to="-50449361#1"/>
    <trip id="day_144" depart="36172.80" from="-54985260#3" to="580760138#3"/>
    <trip id="day_145" depart="36174.00" from="51095934#9" to="54985260#4"/>
    <trip id="day_146" depart="36175.20" from="580760138#4" to="-51095934#13"/>
    <trip id="day_147" depart="36176.40" from="-51510530" to="-25684557#4"/>
    <trip id="day_148" depart="36177.60" from="51095934#2" to="54985279#3"/>
    <trip id="day_149" depart="36178.80" from="-829563410#2" to="37177801#3"/>
    <trip id="day_150" depart="36180.00" from="-50831915#1" to="622102031#1"/>
    <trip id="day_151" depart="36181.20" from="54985260#7" to="88247764#1"/>
    <trip id="day_152" depart="36182.40" from="52152425#1" to="54985279#2"/>
    <trip id="day_153" depart="36183.60" from="-186475564#0" to="50831917"/>
    <trip id="day_154" depart="36184.80" from="-54985279#2" to="622102031#2"/>
    <trip id="day_155" depart="36186.00" from="51543398#0" to="54985260#5"/>
    <trip id="day_156" depart="36187.20" from="52152425#1" to="-54985260#0"/>
    <trip id="day_157" depart="36188.40" from="51095934#5" to="-477271454"/>
    <trip id="day_158" depart="36189.60" from="54985279#0" to="54985260#3"/>
    <trip id="day_159" depart="36190.80" from="-51095934#14" to="53103882#1"/>
    <trip id="day_160" depart="36192.00" from="170083666#2" to="-54985260#9"/>
    <trip id="day_161" depart="36193.20" from="51095934#8" to="-51095934#7"/>
    <trip id="day_162" depart="36194.40" from="-186475564#0" to="-51095930#1"/>
    <trip id="day_163" depart="36195.60" from="-54985279#1" to="54985260#5"/>
    <trip id="day_164" depart="36196.80" from="829563410#1" to="-54985260#13"/>
    <trip id="day_165" depart="36198.00" from="88247764#2" to="25504350#7"/>
    <trip id="day_166" depart="36199.20" from="622102031#5" to="-477271462#2"/>
    <trip id="day_167" depart="36200.40" from="829563410#2" to="-50831916#1"/>
    <trip id="day_168" depart="36201.60" from="-25684557#5" to="1124346622#2"/>
    <trip id="day_169" depart="36202.80" from="50831915#5" to="-54985279#2"/>
    <trip id="day_170" depart="36204.00" from="277523407#1" to="25486114#1"/>
    <trip id="day_171" depart="36205.20" from="-622102031#4" to="25684557#3"/>
    <trip id="day_172" depart="36206.40" from="-51510531#1" to="50831915#11"/>
    <trip id="day_173" depart="36207.60" from="-1075767203#0" to="622102031#0"/>
    <trip id="day_174" depart="36208.80" from="25504350#4" to="50831915#5"/>
    <trip id="day_175" depart="36210.00" from="50831916#1" to="49830666#5"/>
    <trip id="day_176" depart="36211.20" from="-620932850#2" to="-25684551#2"/>
    <trip id="day_177" depart="36212.40" from="477271462#5" to="-580760138#2"/>
    <trip id="day_178" depart="36213.60" from="-54985260#5" to="54985260#14"/>
    <trip id="day_179" depart="36214.80" from="50831915#2" to="-54985260#7"/>
    <trip id="day_180" depart="36216.00" from="-54985260#3" to="-88247764#4"/>
    <trip id="day_181" depart="36217.20" from="-829563410#0" to="-54985260#5"/>
    <trip id="day_182" depart="36218.40" from="-50449361#1" to="-88247764#8"/>
    <trip id="day_183" depart="36219.60" from="622102031#5" to="50449361#1"/>
    <trip id="day_184" depart="36220.80" from="580760138#6" to="37177801#15"/>
    <trip id="day_185" depart="36222.00" from="-54985260#15" to="25684551#2"/>
    <trip id="day_186" depart="36223.20" from="-1075767203#0" to="-54985260#2"/>
    <trip id="day_187" depart="36224.40" from="-88247764#7" to="25684557#4"/>
    <trip id="day_188" depart="36225.60" from="477271462#1" to="186475564#4"/>
    <trip id="day_189" depart="36226.80" from="1124346622#0" to="-51095934#14"/>
    <trip id="day_190" depart="36228.00" from="192981424#0" to="580760138#4"/>
    <trip id="day_191" depart="36229.20" from="51095934#9" to="-50831915#7"/>
    <trip id="day_192" depart="36230.40" from="-25684551#6" to="25486115#2"/>
    <trip id="day_193" depart="36231.60" from="53103893#0" to="51095930#0"/>
    <trip id="day_194" depart="36232.80" from="49830666#2" to="-51095934#5"/>
    <trip id="day_195" depart="36234.00" from="-51095930#0" to="-186475564#2"/>
    <trip id="day_196" depart="36235.20" from="-51095934#8" to="192981424#3"/>
    <trip id="day_197" depart="36236.40" from="54985260#15" to="-25684551#3"/>
    <trip id="day_198" depart="36237.60" from="-88247764#10" to="37177801#6"/>
    <trip id="day_199" depart="36238.80" from="-50831919#0" to="50831914#0"/>
    <trip id="day_200" depart="36240.00" from="192981425#0" to="-52152425#0"/>
    <trip id="day_201" depart="36241.20" from="477271462#1" to="-1124346622#0"/>
    <trip id="day_202" depart="36242.40" from="50831919#0" to="51095934#13"/>
    <trip id="day_203" depart="36243.60" from="-25684557#5" to="1075767203#0"/>
    <trip id="day_204" depart="36244.80" from="25486115#0" to="-25504350#3"/>
    <trip id="day_205" depart="36246.00" from="-51510530" to="54985260#14"/>
    <trip id="day_206" depart="36247.20" from="170083666#0" to="51510531#0"/>
    <trip id="day_207" depart="36248.40" from="49830666#0" to="88247764#5"/>
    <trip id="day_208" depart="36249.60" from="262767663#0" to="626880271#1"/>
    <trip id="day_209" depart="36250.80" from="580760138#1" to="37177801#14"/>
    <trip id="day_210" depart="36252.00" from="50831915#2" to="192987238#4"/>
    <trip id="day_211" depart="36253.20" from="54985260#0" to="25684551#2"/>
    <trip id="day_212" depart="36254.40" from="580760138#4" to="50831918#1"/>
    <trip id="day_213" depart="36255.60" from="192981424#0" to="-53369130#0"/>
    <trip id="day_214" depart="36256.80" from="-51095934#9" to="37177801#9"/>
    <trip id="day_215" depart="36258.00" from="51095934#10" to="25504350#1"/>
    <trip id="day_216" depart="36259.20" from="-25684551#3" to="-54985260#15"/>
    <trip id="day_217" depart="36260.40" from="-53103893#1" to="-54985279#4"/>
    <trip id="day_218" depart="36261.60" from="25504350#5" to="-50449361#5"/>
    <trip id="day_219" depart="36262.80" from="-51095934#3" to="50449361#7"/>
    <trip id="day_220" depart="36264.00" from="50831914#0" to="-25684551#0"/>
    <trip id="day_221" depart="36265.20" from="-829563410#2" to="25684440#1"/>
    <trip id="day_222" depart="36266.40" from="-88247764#10" to="-51095934#12"/>
    <trip id="day_223" depart="36267.60" from="-88247764#3" to="580760138#6"/>
    <trip id="day_224" depart="36268.80" from="25684557#2" to="50831914#0"/>
    <trip id="day_225" depart="36270.00" from="54985260#4" to="51095934#11"/>
    <trip id="day_226" depart="36271.20" from="-622102031#2" to="-1124346622#0"/>
    <trip id="day_227" depart="36272.40" from="-580760138#5" to="51095930#1"/>
    <trip id="day_228" depart="36273.60" from="54985260#3" to="64973297#0"/>
    <trip id="day_229" depart="36274.80" from="-88247764#3" to="50831919#1"/>
    <trip id="day_230" depart="36276.00" from="-51095934#13" to="-51095934#3"/>
    <trip id="day_231" depart="36277.20" from="-88247764#9" to="-25486114#0"/>
    <trip id="day_232" depart="36278.40" from="-54985279#4" to="50449361#1"/>
    <trip id="day_233" depart="36279.60" from="-829563410#1" to="-50831915#5"/>
    <trip id="day_234" depart="36280.80" from="186475564#1" to="-50449361#1"/>
    <trip id="day_235" depart="36282.00" from="-622102031#7" to="25684551#8"/>
    <trip id="day_236" depart="36283.20" from="-186475564#1" to="477271462#0"/>
    <trip id="day_237" depart="36284.40" from="-50449361#4" to="186475564#3"/>
    <trip id="day_238" depart="36285.60" from="-25504350#1" to="-622102031#6"/>
    <trip id="day_239" depart="36286.80" from="-51095934#1" to="-580760138#1"/>
    <trip id="day_240" depart="36288.00" from="51095934#0" to="-622102031#6"/>
    <trip id="day_241" depart="36289.20" from="51095930#0" to="53369130#2"/>
    <trip id="day_242" depart="36290.40" from="-51510531#0" to="-25684551#6"/>
    <trip id="day_243" depart="36291.60" from="-130503625#2" to="25684440#0"/>
    <trip id="day_244" depart="36292.80" from="88247764#9" to="-620932850#3"/>
    <trip id="day_245" depart="36294.00" from="477271454" to="51095934#3"/>
    <trip id="day_246" depart="36295.20" from="477271462#0" to="51095930#1"/>
    <trip id="day_247" depart="36296.40" from="64973297#0" to="-51095934#1"/>
    <trip id="day_248" depart="36297.60" from="-130503625#2" to="-50831915#1"/>
    <trip id="day_249" depart="36298.80" from="-477271462#5" to="49830666#5"/>
    <trip id="day_250" depart="36300.00" from="25684551#4" to="-51095934#3"/>
    <trip id="day_251" depart="36301.20" from="50449361#4" to="51095934#11"/>
    <trip id="day_252" depart="36302.40" from="-50831915#4" to="37177801#12"/>
    <trip id="day_253" depart="36303.60" from="50831918#0" to="-477271462#2"/>
    <trip id="day_254" depart="36304.80" from="53103893#1" to="829563410#0"/>
    <trip id="day_255" depart="36306.00" from="-25684557#5" to="-186475564#2"/>
    <trip id="day_256" depart="36307.20" from="-54985260#4" to="50449361#1"/>
    <trip id="day_257" depart="36308.40" from="67549357#1" to="-88247764#0"/>
    <trip id="day_258" depart="36309.60" from="50831915#1" to="-25684551#4"/>
    <trip id="day_259" depart="36310.80" from="50449361#1" to="37177801#5"/>
    <trip id="day_260" depart="36312.00" from="-25684557#3" to="51095934#13"/>
    <trip id="day_261" depart="36313.20" from="54985260#2" to="37177801#1"/>
    <trip id="day_262" depart="36314.40" from="-477271462#3" to="88247764#3"/>
    <trip id="day_263" depart="36315.60" from="51095934#3" to="-620932850#2"/>
    <trip id="day_264" depart="36316.80" from="-88247764#6" to="-622102031#3"/>
    <trip id="day_265" depart="36318.00" from="192987238#1" to="-620932850#0"/>
    <trip id="day_266" depart="36319.20" from="54985260#15" to="53103893#1"/>
    <trip id="day_267" depart="36320.40" from="-25684557#4" to="744871126#0"/>
    <trip id="day_268" depart="36321.60" from="50831914#0" to="1124346622#2"/>
    <trip id="day_269" depart="36322.80" from="50831915#7" to="829563410#0"/>
    <trip id="day_270" depart="36324.00" from="-53103893#0" to="51543398#1"/>
    <trip id="day_271" depart="36325.20" from="25504350#4" to="192981424#7"/>
    <trip id="day_272" depart="36326.40" from="-88247764#9" to="50831915#9"/>
    <trip id="day_273" depart="36327.60" from="-53103882#1" to="54985260#15"/>
    <trip id="day_274" depart="36328.80" from="54985260#0" to="-25684551#8"/>
    <trip id="day_275" depart="36330.00" from="54985279#4" to="-52152425#0"/>
    <trip id="day_276" depart="36331.20" from="186475564#0" to="37177801#13"/>
    <trip id="day_277" depart="36332.40" from="-622102031#1" to="-25486114#0"/>
    <trip id="day_278" depart="36333.60" from="54985260#2" to="-50831917"/>
    <trip id="day_279" depart="36334.80" from="-51095934#10" to="51095934#9"/>
    <trip id="day_280" depart="36336.00" from="-54985279#5" to="54985279#1"/>
    <trip id="day_281" depart="36337.20" from="50449361#5" to="-54985260#11"/>
    <trip id="day_282" depart="36338.40" from="-1124346622#1" to="626880271#0"/>
    <trip id="day_283" depart="36339.60" from="-25684551#7" to="50831915#5"/>
    <trip id="day_284" depart="36340.80" from="192981424#6" to="51095934#0"/>
    <trip id="day_285" depart="36342.00" from="50449361#1" to="477271462#1"/>
    <trip id="day_286" depart="36343.20" from="192981424#6" to="51095934#7"/>
    <trip id="day_287" depart="36344.40" from="-25684557#0" to="-51095934#4"/>
    <trip id="day_288" depart="36345.60" from="50449361#1" to="-54985260#9"/>
    <trip id="day_289" depart="36346.80" from="25684557#1" to="192981424#3"/>
    <trip id="day_290" depart="36348.00" from="25504350#1" to="1075767203#0"/>
    <trip id="day_291" depart="36349.20" from="50831917" to="-580760138#3"/>
    <trip id="day_292" depart="36350.40" from="50449361#6" to="-54985260#1"/>
    <trip id="day_293" depart="36351.60" from="-51510531#0" to="-477271462#4"/>
    <trip id="day_294" depart="36352.80" from="-50831918#1" to="-477271462#4"/>
    <trip id="day_295" depart="36354.00" from="25504350#3" to="51095934#1"/>
    <trip id="day_296" depart="36355.20" from="-50831916#1" to="-51095934#2"/>
    <trip id="day_297" depart="36356.40" from="192981424#4" to="50831915#7"/>
    <trip id="day_298" depart="36357.60" from="88247764#1" to="25504350#3"/>
    <trip id="day_299" depart="36358.80" from="-54985260#0" to="-25684557#3"/>
    <trip id="day_300" depart="36360.00" from="-50831919#0" to="-51095934#7"/>
    <trip id="day_301" depart="36361.20" from="-50831915#9" to="-130503625#1"/>
    <trip id="day_302" depart="36362.40" from="25504350#2" to="-54985260#11"/>
    <trip id="day_303" depart="36363.60" from="88247764#1" to="25684551#4"/>
    <trip id="day_304" depart="36364.80" from="50449361#3" to="-50449361#0"/>
    <trip id="day_305" depart="36366.00" from="54985260#9" to="192981425#1"/>
    <trip id="day_306" depart="36367.20" from="54985279#0" to="25684557#2"/>
    <trip id="day_307" depart="36368.40" from="186475564#2" to="130503625#1"/>
    <trip id="day_308" depart="36369.60" from="-50831916#1" to="-25504350#3"/>
    <trip id="day_309" depart="36370.80" from="622102031#6" to="192981424#4"/>
    <trip id="day_310" depart="36372.00" from="53369130#0" to="-88247764#10"/>
    <trip id="day_311" depart="36373.20" from="-25684551#2" to="37177801#6"/>
    <trip id="day_312" depart="36374.40" from="-25504350#2" to="-50831915#0"/>
    <trip id="day_313" depart="36375.60" from="25684551#3" to="-54985260#8"/>
    <trip id="day_314" depart="36376.80" from="88247764#7" to="-477271462#3"/>
    <trip id="day_315" depart="36378.00" from="51095934#1" to="37177801#11"/>
    <trip id="day_316" depart="36379.20" from="51095934#7" to="-51095934#6"/>
    <trip id="day_317" depart="36380.40" from="25486115#2" to="170083666#2"/>
    <trip id="day_318" depart="36381.60" from="1124346622#0" to="54985260#3"/>
    <trip id="day_319" depart="36382.80" from="88247764#6" to="-54985260#9"/>
    <trip id="day_320" depart="36384.00" from="37177801#12" to="37177801#12"/>
    <trip id="day_321" depart="36385.20" from="50831916#0" to="626880271#0"/>
    <trip id="day_322" depart="36386.40" from="-51095934#0" to="-51095934#13"/>
    <trip id="day_323" depart="36387.60" from="477271462#3" to="-50831915#2"/>
    <trip id="day_324" depart="36388.80" from="-50831915#7" to="-25684551#4"/>
    <trip id="day_325" depart="36390.00" from="-1075767203#1" to="170083666#2"/>
    <trip id="day_326" depart="36391.20" from="25684557#5" to="-54985260#3"/>
    <trip id="day_327" depart="36392.40" from="-51095934#3" to="50831915#10"/>
    <trip id="day_328" depart="36393.60" from="50449361#6" to="186475564#0"/>
    <trip id="day_329" depart="36394.80" from="50449361#0" to="622102030#3"/>
    <trip id="day_330" depart="36396.00" from="51095934#5" to="37177801#4"/>
    <trip id="day_331" depart="36397.20" from="477271462#3" to="622102031#3"/>
    <trip id="day_332" depart="36398.40" from="-88247764#5" to="25684551#1"/>
    <trip id="day_333" depart="36399.60" from="53369130#1" to="-25684551#2"/>
    <trip id="day_334" depart="36400.80" from="-50831915#4" to="-54985279#0"/>
    <trip id="day_335" depart="36402.00" from="50831918#0" to="25684557#0"/>
    <trip id="day_336" depart="36403.20" from="-54985260#10" to="-50449361#0"/>
    <trip id="day_337" depart="36404.40" from="50449361#0" to="50831914#1"/>
    <trip id="day_338" depart="36405.60" from="622102031#6" to="192987238#2"/>
    <trip id="day_339" depart="36406.80" from="192981425#0" to="-25684551#6"/>
    <trip id="day_340" depart="36408.00" from="-25486114#1" to="1124346622#1"/>
    <trip id="day_341" depart="36409.20" from="-54985260#8" to="-52152425#2"/>
    <trip id="day_342" depart="36410.40" from="-25684551#9" to="744871126#1"/>
    <trip id="day_343" depart="36411.60" from="54985260#10" to="25684557#2"/>
    <trip id="day_344" depart="36412.80" from="64973297#0" to="88247764#9"/>
    <trip id="day_345" depart="36414.00" from="49830666#2" to="-54985260#1"/>
    <trip id="day_346" depart="36415.20" from="-25486114#1" to="51095930#2"/>
    <trip id="day_347" depart="36416.40" from="622102030#0" to="-50831917"/>
    <trip id="day_348" depart="36417.60" from="25684557#2" to="37177801#8"/>
    <trip id="day_349" depart="36418.80" from="192981424#7" to="-25684557#0"/>
    <trip id="day_350" depart="36420.00" from="-580760138#3" to="-580760138#3"/>
    <trip id="day_351" depart="36421.20" from="49830666#1" to="54985260#2"/>
    <trip id="day_352" depart="36422.40" from="-54985279#1" to="50449361#7"/>
    <trip id="day_353" depart="36423.60" from="-54985260#10" to="622102031#7"/>
    <trip id="day_354" depart="36424.80" from="52152425#2" to="25684551#2"/>
    <trip id="day_355" depart="36426.00" from="170083666#0" to="-54985279#2"/>
    <trip id="day_356" depart="36427.20" from="-54985260#9" to="829563410#2"/>
    <trip id="day_357" depart="36428.40" from="-829563410#1" to="25486115#2"/>
    <trip id="day_358" depart="36429.60" from="88247764#5" to="49830666#0"/>
    <trip id="day_359" depart="36430.80" from="25504350#5" to="-88247764#5"/>
    <trip id="day_360" depart="36432.00" from="-50831917" to="-622102031#0"/>
    <trip id="day_361" depart="36433.20" from="51095930#1" to="37177801#5"/>
    <trip id="day_362" depart="36434.40" from="51095934#0" to="-51095934#10"/>
    <trip id="day_363" depart="36435.60" from="25684487" to="622102031#1"/>
    <trip id="day_364" depart="36436.80" from="1075767203#0" to="50831914#1"/>
    <trip id="day_365" depart="36438.00" from="-477271462#3" to="88247764#0"/>
    <trip id="day_366" depart="36439.20" from="277523407#2" to="-51543398#0"/>
    <trip id="day_367" depart="36440.40" from="-50831915#11" to="25684551#3"/>
    <trip id="day_368" depart="36441.60" from="25684551#0" to="-25684557#1"/>
    <trip id="day_369" depart="36442.80" from="88247764#7" to="620932850#2"/>
    <trip id="day_370" depart="36444.00" from="170083666#2" to="-477271462#3"/>
    <trip id="day_371" depart="36445.20" from="54985260#1" to="192987238#1"/>
    <trip id="day_372" depart="36446.40" from="50831915#10" to="25486114#0"/>
    <trip id="day_373" depart="36447.60" from="-53103893#1" to="54985260#1"/>
    <trip id="day_374" depart="36448.80" from="88247764#2" to="-52152425#0"/>
    <trip id="day_375" depart="36450.00" from="25684551#0" to="-64973297#0"/>