<?xml version="1.0" encoding="UTF-8"?>

<!-- generated on 2026-02-19 20:21:51.830468 by Eclipse SUMO randomTrips.py v1_26_0+0000-fa7df22d7f1
<configuration>
    <net-file value=".\data\networks\city_001.net.xml"/>
    <output-trip-file value=".\data\routes\evening.rou.xml"/>
    <prefix value="evening_"/>
    <fringe-factor value="30"/>
    <begin value="57600.0"/>
    <end value="68400.0"/>
    <period value="0.5"/>
    <binomial value="5"/>
</configuration>
-->

<routes xmlns:xsi="http://www.w3.org/2001/XMLSchema-instance" xsi:noNamespaceSchemaLocation="http://sumo.dlr.de/xsd/routes_file.xsd">
    <trip id="evening_0" depart="57601.00" from="-50831919#1" to="-51543398#1"/>
    <trip id="evening_1" depart="57603.00" from="-53103899" to="-25486115#0"/>
    <trip id="evening_2" depart="57603.00" from="1075767203#1" to="-25486115#0"/>
    <trip id="evening_3" depart="57604.00" from="25684551#0" to="25684440#1"/>
    <trip id="evening_4" depart="57604.00" from="25486505" to="51510530"/>
    <trip id="evening_5" depart="57604.00" from="51543398#0" to="50831918#0"/>
    <trip id="evening_6" depart="57605.00" from="-25684557#5" to="622102031#6"/>
    <trip id="evening_7" depart="57606.00" from="-25486114#1" to="-25684551#0"/>
    <trip id="evening_8" depart="57606.00" from="192987238#3" to="51510531#1"/>
    <trip id="evening_9" depart="57606.00" from="-50831916#0" to="-54985260#5"/>
    <trip id="evening_10" depart="57607.00" from="-50831918#1" to="-25684551#0"/>
    <trip id="evening_11" depart="57607.00" from="25684487" to="-622102031#7"/>
    <trip id="evening_12" depart="57607.00" from="-50831915#11" to="-53369130#0"/>
    <trip id="evening_13" depart="57608.00" from="49830666#7" to="-50449361#2"/>
    <trip id="evening_14" depart="57608.00" from="829563410#1" to="50449361#7"/>
    <trip id="evening_15" depart="57608.00" from="-133453038" to="-580760138#0"/>
    <trip id="evening_16" depart="57609.00" from="-50831915#11" to="580760138#3"/>
    <trip id="evening_17" depart="57609.00" from="25684551#0" to="1124346622#2"/>
    <trip id="evening_18" depart="57610.00" from="-50831918#1" to="25684440#1"/>
    <trip id="evening_19" depart="57611.00" from="25486505" to="54985260#0"/>
    <trip id="evening_20" depart="57612.00" from="-50831915#11" to="88247764#7"/>
    <trip id="evening_21" depart="57612.00" from="-133453038" to="-25684551#0"/>
    <trip id="evening_22" depart="57613.00" from="-53103882#1" to="88247764#5"/>
    <trip id="evening_23" depart="57613.00" from="477271462#3" to="50831915#11"/>
    <trip id="evening_24" depart="57613.00" from="25684551#0" to="-25684551#0"/>
    <trip id="evening_25" depart="57614.00" from="-88247764#6" to="-50831916#1"/>
    <trip id="evening_26" depart="57614.00" from="25684551#0" to="37177801#15"/>
    <trip id="evening_27" depart="57614.00" from="50831915#1" to="25684440#1"/>
    <trip id="evening_28" depart="57616.00" from="-51510530" to="-25486115#0"/>
    <trip id="evening_29" depart="57616.00" from="-186475564#2" to="53103899"/>
    <trip id="evening_30" depart="57616.00" from="-622102031#2" to="-25684487"/>
    <trip id="evening_31" depart="57617.00" from="-580760138#3" to="25684440#1"/>
    <trip id="evening_32" depart="57617.00" from="54985260#0" to="133453038"/>
    <trip id="evening_33" depart="57618.00" from="-51095934#15" to="88247764#4"/>
    <trip id="evening_34" depart="57618.00" from="-50831915#6" to="-622102030#0"/>
    <trip id="evening_35" depart="57619.00" from="-50831915#11" to="-25684487"/>
    <trip id="evening_36" depart="57620.00" from="580760138#0" to="53103882#1"/>
    <trip id="evening_37" depart="57620.00" from="-50831918#1" to="50831915#11"/>
    <trip id="evening_38" depart="57620.00" from="-25504350#7" to="54985260#9"/>
    <trip id="evening_39" depart="57620.00" from="-25486114#1" to="133453038"/>
    <trip id="evening_40" depart="57621.00" from="-53103893#1" to="-622102030#0"/>
    <trip id="evening_41" depart="57621.00" from="-50449361#7" to="186475564#4"/>
    <trip id="evening_42" depart="57622.00" from="-50831918#1" to="54985260#16"/>
    <trip id="evening_43" depart="57622.00" from="88247764#9" to="51510531#1"/>
    <trip id="evening_44" depart="57623.00" from="-622102031#2" to="-51543398#0"/>
    <trip id="evening_45" depart="57624.00" from="-53103882#1" to="64973297#1"/>
    <trip id="evening_46" depart="57624.00" from="51095934#3" to="186475564#4"/>
    <trip id="evening_47" depart="57625.00" from="-51095934#15" to="626880271#1"/>
    <trip id="evening_48" depart="57626.00" from="25486505" to="25486114#1"/>
    <trip id="evening_49" depart="57627.00" from="64973297#1" to="-25684487"/>
    <trip id="evening_50" depart="57627.00" from="25486505" to="50831915#11"/>
    <trip id="evening_51" depart="57627.00" from="-25504350#7" to="53103899"/>
    <trip id="evening_52" depart="57627.00" from="25486505" to="477271462#1"/>
    <trip id="evening_53" depart="57628.00" from="25684557#1" to="-580760138#0"/>
    <trip id="evening_54" depart="57628.00" from="50449361#0" to="-25684487"/>
    <trip id="evening_55" depart="57628.00" from="-50831915#11" to="-53369130#0"/>
    <trip id="evening_56" depart="57629.00" from="-477271462#1" to="51510531#1"/>
    <trip id="evening_57" depart="57630.00" from="52152425#0" to="-580760138#0"/>
    <trip id="evening_58" depart="57631.00" from="-25504350#4" to="-25684551#0"/>
    <trip id="evening_59" depart="57631.00" from="25486505" to="50831918#1"/>
    <trip id="evening_60" depart="57631.00" from="25684487" to="-53369130#0"/>
    <trip id="evening_61" depart="57632.00" from="-53103899" to="-53369130#0"/>
    <trip id="evening_62" depart="57632.00" from="50831916#0" to="50449361#7"/>
    <trip id="evening_63" depart="57633.00" from="50449361#0" to="25684440#1"/>
    <trip id="evening_64" depart="57634.00" from="-186475564#4" to="53103899"/>
    <trip id="evening_65" depart="57634.00" from="-25504350#7" to="-580760138#0"/>
    <trip id="evening_66" depart="57634.00" from="-50831918#1" to="-25684551#0"/>
    <trip id="evening_67" depart="57635.00" from="622102030#0" to="53103882#1"/>
    <trip id="evening_68" depart="57635.00" from="50449361#0" to="-622102030#0"/>
    <trip id="evening_69" depart="57636.00" from="51095934#7" to="-25684551#0"/>
    <trip id="evening_70" depart="57636.00" from="52152425#0" to="186475564#4"/>
    <trip id="evening_71" depart="57636.00" from="51543398#0" to="-52152425#0"/>
    <trip id="evening_72" depart="57637.00" from="-50831914#1" to="-620932850#0"/>
    <trip id="evening_73" depart="57637.00" from="25684551#0" to="1124346622#2"/>
    <trip id="evening_74" depart="57639.00" from="67549357#0" to="-50831916#1"/>
    <trip id="evening_75" depart="57641.00" from="25504350#0" to="25504350#7"/>
    <trip id="evening_76" depart="57641.00" from="25486115#0" to="-53369130#0"/>
    <trip id="evening_77" depart="57641.00" from="622102030#0" to="25684440#1"/>
    <trip id="evening_78" depart="57642.00" from="-186475564#4" to="50831915#11"/>
    <trip id="evening_79" depart="57642.00" from="-51095934#15" to="53103882#1"/>
    <trip id="evening_80" depart="57642.00" from="-51095934#15" to="130503625#1"/>
    <trip id="evening_81" depart="57643.00" from="-25504350#7" to="133453038"/>
    <trip id="evening_82" depart="57643.00" from="192981425#1" to="-1075767203#0"/>
    <trip id="evening_83" depart="57644.00" from="-54985260#0" to="37177801#0"/>
    <trip id="evening_84" depart="57646.00" from="-580760138#1" to="54985260#12"/>
    <trip id="evening_85" depart="57647.00" from="-25486114#0" to="25504350#7"/>
    <trip id="evening_86" depart="57648.00" from="52152425#0" to="51095930#1"/>
    <trip id="evening_87" depart="57649.00" from="-50831915#11" to="-25486115#0"/>
    <trip id="evening_88" depart="57650.00" from="-580760138#3" to="53103882#1"/>
    <trip id="evening_89" depart="57651.00" from="-53103899" to="50449361#1"/>
    <trip id="evening_90" depart="57652.00" from="262767663#0" to="25486114#1"/>
    <trip id="evening_91" depart="57653.00" from="25684551#0" to="-130503625#2"/>
    <trip id="evening_92" depart="57653.00" from="-53103899" to="-50831915#7"/>
    <trip id="evening_93" depart="57653.00" from="-50831918#1" to="53103882#1"/>
    <trip id="evening_94" depart="57654.00" from="-50831918#1" to="50449361#7"/>
    <trip id="evening_95" depart="57654.00" from="-186475564#4" to="-54985260#15"/>
    <trip id="evening_96" depart="57654.00" from="-51095934#7" to="25684440#1"/>
    <trip id="evening_97" depart="57655.00" from="-50831918#1" to="50831915#8"/>
    <trip id="evening_98" depart="57655.00" from="-53103899" to="25684440#1"/>
    <trip id="evening_99" depart="57656.00" from="-53103899" to="54985260#16"/>
    <trip id="evening_100" depart="57656.00" from="-1124346622#2" to="-622102030#0"/>
    <trip id="evening_101" depart="57656.00" from="-50831915#11" to="170083666#2"/>
    <trip id="evening_102" depart="57656.00" from="-51510530" to="50831915#11"/>
    <trip id="evening_103" depart="57657.00" from="-54985260#9" to="-25684557#2"/>
    <trip id="evening_104" depart="57657.00" from="-53103882#1" to="25684551#2"/>
    <trip id="evening_105" depart="57657.00" from="25684551#0" to="-477271462#4"/>
    <trip id="evening_106" depart="57659.00" from="-53103882#1" to="-51543398#0"/>
    <trip id="evening_107" depart="57659.00" from="50831914#1" to="1075767203#0"/>
    <trip id="evening_108" depart="57660.00" from="-186475564#4" to="-25486115#0"/>
    <trip id="evening_109" depart="57660.00" from="25684551#0" to="51095934#15"/>
    <trip id="evening_110" depart="57660.00" from="-1124346622#2" to="-50449361#0"/>
    <trip id="evening_111" depart="57660.00" from="25684551#8" to="25684551#2"/>
    <trip id="evening_112" depart="57661.00" from="262767663#0" to="51095934#15"/>
    <trip id="evening_113" depart="57661.00" from="25504350#2" to="50831919#1"/>
    <trip id="evening_114" depart="57662.00" from="52152425#0" to="626880271#1"/>
    <trip id="evening_115" depart="57662.00" from="-1124346622#2" to="-580760138#0"/>
    <trip id="evening_116" depart="57662.00" from="50831917" to="53103882#1"/>
    <trip id="evening_117" depart="57662.00" from="67549357#0" to="51095934#15"/>
    <trip id="evening_118" depart="57663.00" from="-53369130#1" to="-88247764#1"/>
    <trip id="evening_119" depart="57663.00" from="53369130#0" to="51510531#1"/>
    <trip id="evening_120" depart="57663.00" from="64973297#1" to="50449361#7"/>
    <trip id="evening_121" depart="57663.00" from="51543398#0" to="25684440#1"/>
    <trip id="evening_122" depart="57664.00" from="53369130#0" to="51510531#1"/>
    <trip id="evening_123" depart="57664.00" from="54985260#5" to="-52152425#0"/>
    <trip id="evening_124" depart="57665.00" from="-130503625#0" to="53103882#1"/>
    <trip id="evening_125" depart="57665.00" from="-50831915#11" to="51510530"/>
    <trip id="evening_126" depart="57666.00" from="54985260#3" to="50831918#1"/>
    <trip id="evening_127" depart="57666.00" from="-1124346622#2" to="620932850#2"/>
    <trip id="evening_128" depart="57667.00" from="477271462#2" to="25486114#1"/>
    <trip id="evening_129" depart="57668.00" from="-50831915#2" to="50831915#5"/>
    <trip id="evening_130" depart="57669.00" from="25486505" to="192981425#2"/>
    <trip id="evening_131" depart="57669.00" from="277523407#0" to="-53369130#0"/>
    <trip id="evening_132" depart="57670.00" from="-25504350#7" to="-51095934#4"/>
    <trip id="evening_133" depart="57670.00" from="170083666#2" to="51095934#15"/>
    <trip id="evening_134" depart="57670.00" from="-50831915#11" to="25486114#1"/>
    <trip id="evening_135" depart="57670.00" from="-25486114#1" to="-51095934#6"/>
    <trip id="evening_136" depart="57671.00" from="-50449361#7" to="-25486115#0"/>
    <trip id="evening_137" depart="57671.00" from="67549357#0" to="25684440#1"/>
    <trip id="evening_138" depart="57672.00" from="53369130#0" to="25486114#1"/>
    <trip id="evening_139" depart="57672.00" from="-133453038" to="580760138#1"/>
    <trip id="evening_140" depart="57672.00" from="25684487" to="-25486505"/>
    <trip id="evening_141" depart="57673.00" from="25486115#0" to="-580760138#0"/>
    <trip id="evening_142" depart="57673.00" from="50831915#2" to="37177801#15"/>
    <trip id="evening_143" depart="57674.00" from="170083666#0" to="186475564#4"/>
    <trip id="evening_144" depart="57675.00" from="25684487" to="37177801#15"/>
    <trip id="evening_145" depart="57675.00" from="-50831915#11" to="50831914#0"/>
    <trip id="evening_146" depart="57676.00" from="-50449361#7" to="-25684487"/>
    <trip id="evening_147" depart="57677.00" from="-54985260#16" to="37177801#15"/>
    <trip id="evening_148" depart="57677.00" from="-50831918#1" to="50831918#1"/>
    <trip id="evening_149" depart="57677.00" from="-50449361#5" to="-580760138#0"/>
    <trip id="evening_150" depart="57678.00" from="-25504350#7" to="50831915#11"/>
    <trip id="evening_151" depart="57678.00" from="-133453038" to="133453038"/>
    <trip id="evening_152" depart="57678.00" from="-50831918#1" to="-25684487"/>
    <trip id="evening_153" depart="57679.00" from="-133453038" to="51095934#12"/>
    <trip id="evening_154" depart="57679.00" from="25486505" to="50449361#7"/>
    <trip id="evening_155" depart="57679.00" from="-51510531#1" to="-622102030#0"/>
    <trip id="evening_156" depart="57679.00" from="262767663#0" to="-54985260#4"/>
    <trip id="evening_157" depart="57680.00" from="-51510530" to="626880271#1"/>
    <trip id="evening_158" depart="57680.00" from="-51510531#1" to="51095934#12"/>
    <trip id="evening_159" depart="57681.00" from="192987238#0" to="54985260#16"/>
    <trip id="evening_160" depart="57681.00" from="67549357#0" to="37177801#15"/>
    <trip id="evening_161" depart="57681.00" from="-477271462#1" to="25684440#1"/>
    <trip id="evening_162" depart="57681.00" from="88247764#1" to="54985260#16"/>
    <trip id="evening_163" depart="57682.00" from="52152425#0" to="25486114#1"/>
    <trip id="evening_164" depart="57682.00" from="52152425#0" to="626880271#1"/>
    <trip id="evening_165" depart="57682.00" from="192987238#2" to="1124346622#2"/>
    <trip id="evening_166" depart="57682.00" from="51510531#0" to="133453038"/>
    <trip id="evening_167" depart="57683.00" from="-51095934#15" to="37177801#15"/>
    <trip id="evening_168" depart="57683.00" from="186475564#2" to="-622102030#0"/>
    <trip id="evening_169" depart="57684.00" from="-50449361#7" to="50831917"/>
    <trip id="evening_170" depart="57684.00" from="51095930#0" to="-25486505"/>
    <trip id="evening_171" depart="57684.00" from="25684551#10" to="51510531#1"/>
    <trip id="evening_172" depart="57685.00" from="-88247764#8" to="37177801#15"/>
    <trip id="evening_173" depart="57685.00" from="-54985279#1" to="626880271#1"/>
    <trip id="evening_174" depart="57686.00" from="262767663#0" to="50449361#7"/>
    <trip id="evening_175" depart="57686.00" from="-51095934#3" to="50831918#1"/>
    <trip id="evening_176" depart="57687.00" from="-186475564#4" to="50449361#2"/>
    <trip id="evening_177" depart="57688.00" from="25684487" to="53103899"/>
    <trip id="evening_178" depart="57689.00" from="51543398#0" to="-54985279#0"/>
    <trip id="evening_179" depart="57690.00" from="-25684551#3" to="25504350#7"/>
    <trip id="evening_180" depart="57690.00" from="-186475564#4" to="53103899"/>
    <trip id="evening_181" depart="57690.00" from="580760138#0" to="-50449361#0"/>
    <trip id="evening_182" depart="57691.00" from="-50831918#1" to="-25486114#0"/>
    <trip id="evening_183" depart="57692.00" from="-54985260#16" to="-622102030#0"/>
    <trip id="evening_184" depart="57693.00" from="53103893#1" to="-51543398#0"/>
    <trip id="evening_185" depart="57694.00" from="-622102030#3" to="-52152425#0"/>
    <trip id="evening_186" depart="57694.00" from="67549357#0" to="50449361#7"/>
    <trip id="evening_187" depart="57694.00" from="25486115#0" to="50831915#11"/>
    <trip id="evening_188" depart="57695.00" from="25504350#1" to="25486114#1"/>
    <trip id="evening_189" depart="57695.00" from="51543398#0" to="37177801#15"/>
    <trip id="evening_190" depart="57695.00" from="25684487" to="477271462#3"/>
    <trip id="evening_191" depart="57696.00" from="-54985260#16" to="277523407#2"/>
    <trip id="evening_192" depart="57696.00" from="-51095934#15" to="50831919#1"/>
    <trip id="evening_193" depart="57697.00" from="-25504350#7" to="25684440#1"/>
    <trip id="evening_194" depart="57698.00" from="52152425#0" to="25486114#1"/>
    <trip id="evening_195" depart="57698.00" from="-25504350#4" to="626880271#1"/>
    <trip id="evening_196" depart="57698.00" from="67549357#0" to="53103882#1"/>
    <trip id="evening_197" depart="57699.00" from="51543398#0" to="-25486115#0"/>
    <trip id="evening_198" depart="57699.00" from="-50831918#1" to="-25486115#0"/>
    <trip id="evening_199" depart="57700.00" from="-186475564#4" to="51510531#1"/>
    <trip id="evening_200" depart="57700.00" from="-53103899" to="-50449361#0"/>
    <trip id="evening_201" depart="57702.00" from="-829563410#0" to="-25684551#0"/>
    <trip id="evening_202" depart="57702.00" from="-54985260#16" to="50831915#11"/>
    <trip id="evening_203" depart="57703.00" from="-53103899" to="-25684551#0"/>
    <trip id="evening_204" depart="57704.00" from="-51510531#1" to="186475564#4"/>
    <trip id="evening_205" depart="57704.00" from="262767663#0" to="25684440#1"/>
    <trip id="evening_206" depart="57704.00" from="-53103882#1" to="-51095934#14"/>
    <trip id="evening_207" depart="57705.00" from="53369130#0" to="186475564#4"/>
    <trip id="evening_208" depart="57705.00" from="51095934#6" to="-52152425#0"/>
    <trip id="evening_209" depart="57705.00" from="25486115#0" to="-25684487"/>
    <trip id="evening_210" depart="57706.00" from="-50831915#11" to="53103893#0"/>
    <trip id="evening_211" depart="57707.00" from="-25684551#5" to="54985260#11"/>
    <trip id="evening_212" depart="57708.00" from="53369130#0" to="-50449361#0"/>
    <trip id="evening_213" depart="57708.00" from="-50831918#1" to="-50831915#6"/>
    <trip id="evening_214" depart="57708.00" from="-1124346622#2" to="51510530"/>
    <trip id="evening_215" depart="57709.00" from="-51510530" to="-50831915#5"/>
    <trip id="evening_216" depart="57709.00" from="50449361#0" to="25504350#7"/>
    <trip id="evening_217" depart="57709.00" from="1075767203#0" to="580760138#6"/>
    <trip id="evening_218" depart="57709.00" from="51095934#2" to="53103882#1"/>
    <trip id="evening_219" depart="57710.00" from="-620932850#1" to="1124346622#2"/>
    <trip id="evening_220" depart="57710.00" from="-186475564#4" to="37177801#15"/>
    <trip id="evening_221" depart="57710.00" from="-50831919#1" to="50449361#5"/>
    <trip id="evening_222" depart="57710.00" from="88247764#3" to="25504350#7"/>
    <trip id="evening_223" depart="57711.00" from="262767663#2" to="53103882#1"/>
    <trip id="evening_224" depart="57711.00" from="-54985260#16" to="-52152425#0"/>
    <trip id="evening_225" depart="57712.00" from="-54985260#16" to="133453038"/>
    <trip id="evening_226" depart="57712.00" from="-53103899" to="50831915#11"/>
    <trip id="evening_227" depart="57712.00" from="-25684557#2" to="54985260#16"/>
    <trip id="evening_228" depart="57713.00" from="52152425#0" to="-25684551#0"/>
    <trip id="evening_229" depart="57713.00" from="50449361#0" to="51510530"/>
    <trip id="evening_230" depart="57713.00" from="-25504350#7" to="-622102030#0"/>
    <trip id="evening_231" depart="57714.00" from="25486115#0" to="-51543398#0"/>
    <trip id="evening_232" depart="57714.00" from="-25486114#1" to="53103882#1"/>
    <trip id="evening_233" depart="57715.00" from="50831915#1" to="25684557#4"/>
    <trip id="evening_234" depart="57715.00" from="622102030#0" to="51510531#1"/>
    <trip id="evening_235" depart="57716.00" from="-50449361#7" to="50831918#1"/>
    <trip id="evening_236" depart="57716.00" from="-51510530" to="-186475564#0"/>
    <trip id="evening_237" depart="57717.00" from="25684487" to="-25486115#0"/>
    <trip id="evening_238" depart="57717.00" from="-53103899" to="-622102030#0"/>
    <trip id="evening_239" depart="57718.00" from="477271462#4" to="51095934#15"/>
    <trip id="evening_240" depart="57718.00" from="-133453038" to="-50449361#0"/>
    <trip id="evening_241" depart="57719.00" from="25684551#0" to="25486114#1"/>
    <trip id="evening_242" depart="57719.00" from="50449361#1" to="-25684551#0"/>
    <trip id="evening_243" depart="57720.00" from="262767663#0" to="25486114#1"/>
    <trip id="evening_244" depart="57720.00" from="-53103882#1" to="37177801#15"/>
    <trip id="evening_245" depart="57721.00" from="-51095934#15" to="-51543398#0"/>
    <trip id="evening_246" depart="57722.00" from="-50831918#1" to="-620932850#0"/>
    <trip id="evening_247" depart="57722.00" from="50449361#0" to="-50831915#7"/>
    <trip id="evening_248" depart="57723.00" from="277523407#1" to="25486114#1"/>
    <trip id="evening_249" depart="57724.00" from="53369130#0" to="-25486505"/>
    <trip id="evening_250" depart="57724.00" from="620932850#0" to="53103882#1"/>
    <trip id="evening_251" depart="57724.00" from="-1124346622#2" to="-580760138#3"/>
    <trip id="evening_252" depart="57725.00" from="53103893#0" to="-52152425#0"/>
    <trip id="evening_253" depart="57725.00" from="-51095934#15" to="-622102030#0"/>
    <trip id="evening_254" depart="57725.00" from="-50449361#7" to="25504350#6"/>
    <trip id="evening_255" depart="57726.00" from="170083666#0" to="54985260#16"/>
    <trip id="evening_256" depart="57727.00" from="49830666#5" to="51510531#1"/>
    <trip id="evening_257" depart="57727.00" from="-25684551#4" to="-51510531#0"/>
    <trip id="evening_258" depart="57728.00" from="50831917" to="25486114#1"/>
    <trip id="evening_259" depart="57729.00" from="-186475564#4" to="186475564#4"/>
    <trip id="evening_260" depart="57729.00" from="-50831919#1" to="-25486505"/>
    <trip id="evening_261" depart="57730.00" from="-54985260#16" to="-25486505"/>
    <trip id="evening_262" depart="57730.00" from="53369130#0" to="53103882#1"/>
    <trip id="evening_263" depart="57731.00" from="-580760138#4" to="-50449361#0"/>
    <trip id="evening_264" depart="57731.00" from="-25486114#1" to="54985260#10"/>
    <trip id="evening_265" depart="57732.00" from="-50831918#1" to="186475564#1"/>
    <trip id="evening_266" depart="57732.00" from="-51543398#1" to="-54985260#12"/>
    <trip id="evening_267" depart="57734.00" from="25486505" to="51095934#9"/>
    <trip id="evening_268" depart="57734.00" from="-25486114#1" to="50831915#11"/>
    <trip id="evening_269" depart="57735.00" from="49830666#0" to="50449361#7"/>
    <trip id="evening_270" depart="57735.00" from="25486505" to="-50449361#0"/>
    <trip id="evening_271" depart="57736.00" from="67549357#0" to="50831918#0"/>
    <trip id="evening_272" depart="57736.00" from="25486505" to="54985279#2"/>
    <trip id="evening_273" depart="57736.00" from="-53103882#1" to="51510530"/>
    <trip id="evening_274" depart="57736.00" from="-51510531#1" to="-50831918#0"/>
    <trip id="evening_275" depart="57736.00" from="622102030#0" to="25486114#1"/>
    <trip id="evening_276" depart="57738.00" from="-25504350#7" to="-25684487"/>
    <trip id="evening_277" depart="57738.00" from="50831916#0" to="51510531#1"/>
    <trip id="evening_278" depart="57738.00" from="-51510530" to="51095934#15"/>
    <trip id="evening_279" depart="57739.00" from="-53103882#1" to="-50449361#1"/>
    <trip id="evening_280" depart="57740.00" from="-54985260#16" to="133453038"/>
    <trip id="evening_281" depart="57741.00" from="-54985260#16" to="-54985260#14"/>
    <trip id="evening_282" depart="57741.00" from="51543398#0" to="192981424#5"/>
    <trip id="evening_283" depart="57742.00" from="622102030#0" to="64973297#0"/>
    <trip id="evening_284" depart="57743.00" from="-53103882#1" to="25504350#7"/>
    <trip id="evening_285" depart="57743.00" from="-50831918#1" to="50449361#7"/>
    <trip id="evening_286" depart="57745.00" from="53369130#0" to="53103882#1"/>
    <trip id="evening_287" depart="57745.00" from="50831915#1" to="-53369130#0"/>
    <trip id="evening_288" depart="57746.00" from="-54985260#16" to="620932850#0"/>
    <trip id="evening_289" depart="57746.00" from="-54985260#16" to="-622102030#0"/>
    <trip id="evening_290" depart="57746.00" from="-133453038" to="25486114#1"/>
    <trip id="evening_291" depart="57746.00" from="88247764#3" to="-88247764#5"/>
    <trip id="evening_292" depart="57747.00" from="622102030#0" to="51510531#1"/>
    <trip id="evening_293" depart="57747.00" from="-51095934#10" to="51510531#1"/>
    <trip id="evening_294" depart="57747.00" from="-186475564#4" to="-53369130#0"/>
    <trip id="evening_295" depart="57748.00" from="-51095934#12" to="-580760138#0"/>
    <trip id="evening_296" depart="57748.00" from="-53103899" to="51510530"/>
    <trip id="evening_297" depart="57749.00" from="580760138#0" to="37177801#15"/>
    <trip id="evening_298" depart="57749.00" from="170083666#0" to="-52152425#0"/>
    <trip id="evening_299" depart="57749.00" from="-53369130#2" to="37177801#7"/>
    <trip id="evening_300" depart="57750.00" from="-53103899" to="50831915#11"/>
    <trip id="evening_301" depart="57750.00" from="67549357#0" to="-25684487"/>
    <trip id="evening_302" depart="57751.00" from="-54985279#2" to="50449361#7"/>
    <trip id="evening_303" depart="57751.00" from="-1124346622#2" to="51095934#8"/>
    <trip id="evening_304" depart="57752.00" from="50449361#0" to="49830666#6"/>
    <trip id="evening_305" depart="57753.00" from="-133453038" to="25684440#1"/>
    <trip id="evening_306" depart="57753.00" from="51095934#10" to="192981424#0"/>
    <trip id="evening_307" depart="57754.00" from="51095930#1" to="186475564#4"/>
    <trip id="evening_308" depart="57754.00" from="-133453038" to="-51543398#0"/>
    <trip id="evening_309" depart="57755.00" from="622102030#0" to="25504350#7"/>
    <trip id="evening_310" depart="57755.00" from="50449361#0" to="-51095934#3"/>
    <trip id="evening_311" depart="57755.00" from="51095934#12" to="53103882#1"/>
    <trip id="evening_312" depart="57756.00" from="-25504350#7" to="-829563410#1"/>
    <trip id="evening_313" depart="57756.00" from="67549357#0" to="25486114#1"/>
    <trip id="evening_314" depart="57757.00" from="25486505" to="51510531#1"/>
    <trip id="evening_315" depart="57758.00" from="-186475564#4" to="50831914#1"/>
    <trip id="evening_316" depart="57759.00" from="25486505" to="133453038"/>
    <trip id="evening_317" depart="57759.00" from="-133453038" to="53103893#1"/>
    <trip id="evening_318" depart="57759.00" from="88247764#7" to="-53369130#0"/>
    <trip id="evening_319" depart="57760.00" from="25684551#0" to="-622102031#5"/>
    <trip id="evening_320" depart="57760.00" from="25504350#2" to="51095934#15"/>
    <trip id="evening_321" depart="57760.00" from="-186475564#4" to="51095934#15"/>
    <trip id="evening_322" depart="57761.00" from="-53103882#1" to="25684551#6"/>
    <trip id="evening_323" depart="57761.00" from="50831915#1" to="25684557#4"/>
    <trip id="evening_324" depart="57761.00" from="25684551#0" to="-52152425#2"/>
    <trip id="evening_325" depart="57762.00" from="50449361#0" to="25486114#1"/>
    <trip id="evening_326" depart="57762.00" from="25486115#0" to="-53369130#0"/>
    <trip id="evening_327" depart="57764.00" from="-54985260#16" to="88247764#5"/>
    <trip id="evening_328" depart="57765.00" from="580760138#1" to="25486114#1"/>
    <trip id="evening_329" depart="57765.00" from="53369130#0" to="186475564#4"/>
    <trip id="evening_330" depart="57765.00" from="262767663#0" to="53103882#1"/>
    <trip id="evening_331" depart="57766.00" from="-51510531#0" to="-25504350#3"/>
    <trip id="evening_332" depart="57766.00" from="-50831915#11" to="-50449361#0"/>
    <trip id="evening_333" depart="57767.00" from="25486115#0" to="-829563410#2"/>
    <trip id="evening_334" depart="57767.00" from="-51095934#15" to="88247764#9"/>
    <trip id="evening_335" depart="57768.00" from="67549357#0" to="50449361#7"/>
    <trip id="evening_336" depart="57768.00" from="54985260#14" to="51095934#15"/>
    <trip id="evening_337" depart="57769.00" from="67549357#0" to="133453038"/>
    <trip id="evening_338" depart="57769.00" from="-25504350#7" to="-50449361#0"/>
    <trip id="evening_339" depart="57769.00" from="-51510530" to="50831918#1"/>
    <trip id="evening_340" depart="57770.00" from="622102030#0" to="53103899"/>
    <trip id="evening_341" depart="57771.00" from="25684487" to="25684440#1"/>
    <trip id="evening_342" depart="57771.00" from="-51095934#15" to="25504350#7"/>
    <trip id="evening_343" depart="57771.00" from="622102030#0" to="-50449361#0"/>
    <trip id="evening_344" depart="57772.00" from="-133453038" to="50449361#7"/>
    <trip id="evening_345" depart="57773.00" from="622102031#6" to="25486114#1"/>
    <trip id="evening_346" depart="57773.00" from="-186475564#4" to="-25486505"/>
    <trip id="evening_347" depart="57774.00" from="25504350#1" to="-580760138#0"/>
    <trip id="evening_348" depart="57774.00" from="-51510531#1" to="25684440#1"/>
    <trip id="evening_349" depart="57774.00" from="-54985260#8" to="-53369130#0"/>
    <trip id="evening_350" depart="57775.00" from="-25486114#1" to="-54985260#6"/>
    <trip id="evening_351" depart="57776.00" from="25684487" to="-52152425#0"/>
    <trip id="evening_352" depart="57776.00" from="-51510530" to="277523407#0"/>
    <trip id="evening_353" depart="57777.00" from="50831915#1" to="25486114#1"/>
    <trip id="evening_354" depart="57777.00" from="-1124346622#2" to="580760138#6"/>
    <trip id="evening_355" depart="57778.00" from="-51510531#1" to="-25486505"/>
    <trip id="evening_356" depart="57780.00" from="-53103882#1" to="25684551#9"/>
    <trip id="evening_357" depart="57780.00" from="25486114#0" to="-25684487"/>
    <trip id="evening_358" depart="57781.00" from="829563410#0" to="50831915#11"/>