<?xml version="1.0" encoding="UTF-8"?>

<!-- generated on 2026-02-19 20:17:11.459510 by Eclipse SUMO randomTrips.py v1_26_0+0000-fa7df22d7f1
<configuration>
    <net-file value=".\data\networks\city_001.net.xml"/>
    <output-trip-file value=".\data\routes\midnight.rou.xml"/>
    <prefix value="midnight_"/>
    <begin value="68400.0"/>
    <end value="86400.0"/>
    <period value="1.8"/>
</configuration>
-->

<routes xmlns:xsi="http://www.w3.org/2001/XMLSchema-instance" xsi:noNamespaceSchemaLocation="http://sumo.dlr.de/xsd/routes_file.xsd">
    <trip id="midnight_0" depart="68400.00" from="-53103899" to="-51095934#5"/>
    <trip id="midnight_1" depart="68401.80" from="50831915#9" to="49830666#7"/>
    <trip id="midnight_2" depart="68403.60" from="580760138#2" to="-25684551#8"/>
    <trip id="midnight_3" depart="68405.40" from="-88247764#4" to="-25486114#0"/>
    <trip id="midnight_4" depart="68407.20" from="-51095934#12" to="192987238#4"/>
    <trip id="midnight_5" depart="68409.00" from="-186475564#1" to="-51095934#0"/>
    <trip id="midnight_6" depart="68410.80" from="477271454" to="25684551#1"/>
    <trip id="midnight_7" depart="68412.60" from="-51095934#13" to="277523407#0"/>
    <trip id="midnight_8" depart="68414.40" from="52152425#1" to="-1124346622#0"/>
    <trip id="midnight_9" depart="68416.20" from="51543398#1" to="50831914#1"/>
    <trip id="midnight_10" depart="68418.00" from="-54985279#5" to="-50831915#2"/>
    <trip id="midnight_11" depart="68419.80" from="67549357#1" to="-580760138#5"/>
    <trip id="midnight_12" depart="68421.60" from="-25684551#9" to="-25684557#2"/>
    <trip id="midnight_13" depart="68423.40" from="54985260#14" to="37177801#10"/>
    <trip id="midnight_14" depart="68425.20" from="52152425#0" to="50831915#9"/>
    <trip id="midnight_15" depart="68427.00" from="25504350#3" to="88247764#0"/>
    <trip id="midnight_16" depart="68428.80" from="-622102031#1" to="25684551#3"/>
    <trip id="midnight_17" depart="68430.60" from="53369130#2" to="37177801#2"/>
    <trip id="midnight_18" depart="68432.40" from="54985260#6" to="25684557#3"/>
    <trip id="midnight_19" depart="68434.20" from="50449361#6" to="-25504350#1"/>
    <trip id="midnight_20" depart="68436.00" from="-51095934#2" to="-54985260#2"/>
    <trip id="midnight_21" depart="68437.80" from="-25684551#4" to="-51095934#9"/>
    <trip id="midnight_22" depart="68439.60" from="-25684557#3" to="-54985260#12"/>
    <trip id="midnight_23" depart="68441.40" from="-622102030#2" to="-51095934#13"/>
    <trip id="midnight_24" depart="68443.20" from="-53103882#1" to="622102031#4"/>
    <trip id="midnight_25" depart="68445.00" from="37177801#9" to="37177801#12"/>
    <trip id="midnight_26" depart="68446.80" from="-50831915#6" to="50831915#9"/>
    <trip id="midnight_27" depart="68448.60" from="-50831915#3" to="-622102031#6"/>
    <trip id="midnight_28" depart="68450.40" from="88247764#5" to="477271454"/>
    <trip id="midnight_29" depart="68452.20" from="25684551#10" to="50449361#3"/>
    <trip id="midnight_30" depart="68454.00" from="54985260#13" to="51095934#15"/>
    <trip id="midnight_31" depart="68455.80" from="-51095934#2" to="-25486115#0"/>
    <trip id="midnight_32" depart="68457.60" from="-54985260#6" to="-54985260#0"/>
    <trip id="midnight_33" depart="68459.40" from="-51095934#1" to="622102031#6"/>
    <trip id="midnight_34" depart="68461.20" from="54985279#2" to="-54985279#2"/>
    <trip id="midnight_35" depart="68463.00" from="477271462#1" to="-88247764#0"/>
    <trip id="midnight_36" depart="68464.80" from="620932850#3" to="186475564#2"/>
    <trip id="midnight_37" depart="68466.60" from="-53103882#0" to="-52152425#1"/>
    <trip id="midnight_38" depart="68468.40" from="25684551#3" to="-53369130#1"/>
    <trip id="midnight_39" depart="68470.20" from="25684557#2" to="580760138#3"/>
    <trip id="midnight_40" depart="68472.00" from="-64973297#1" to="-51095934#3"/>
    <trip id="midnight_41" depart="68473.80" from="88247764#9" to="25486114#1"/>
    <trip id="midnight_42" depart="68475.60" from="-25684551#9" to="-25504350#2"/>
    <trip id="midnight_43" depart="68477.40" from="-477271454" to="37177801#5"/>
    <trip id="midnight_44" depart="68479.20" from="51095934#7" to="-88247764#9"/>
    <trip id="midnight_45" depart="68481.00" from="-25504350#6" to="-622102031#7"/>
    <trip id="midnight_46" depart="68482.80" from="88247764#8" to="25504350#4"/>
    <trip id="midnight_47" depart="68484.60" from="829563410#2" to="54985260#4"/>
    <trip id="midnight_48" depart="68486.40" from="-1124346622#2" to="50831915#5"/>
    <trip id="midnight_49" depart="68488.20" from="49830666#5" to="25504350#7"/>
    <trip id="midnight_50" depart="68490.00" from="-53103882#1" to="477271462#0"/>
    <trip id="midnight_51" depart="68491.80" from="-477271462#0" to="1124346622#2"/>
    <trip id="midnight_52" depart="68493.60" from="130503625#2" to="64973297#1"/>
    <trip id="midnight_53" depart="68495.40" from="54985279#1" to="-53369130#1"/>
    <trip id="midnight_54" depart="68497.20" from="192981425#2" to="-50831916#1"/>
    <trip id="midnight_55" depart="68499.00" from="620932850#3" to="54985260#7"/>
    <trip id="midnight_56" depart="68500.80" from="-54985260#14" to="477271454"/>
    <trip id="midnight_57" depart="68502.60" from="277523407#2" to="-50831915#10"/>
    <trip id="midnight_58" depart="68504.40" from="51095934#1" to="25684440#0"/>
    <trip id="midnight_59" depart="68506.20" from="51095934#2" to="25504350#5"/>
    <trip id="midnight_60" depart="68508.00" from="-1075767203#0" to="-580760138#0"/>
    <trip id="midnight_61" depart="68509.80" from="-130503625#2" to="622102031#1"/>
    <trip id="midnight_62" depart="68511.60" from="54985279#3" to="53369130#2"/>
    <trip id="midnight_63" depart="68513.40" from="-54985260#3" to="-25504350#6"/>
    <trip id="midnight_64" depart="68515.20" from="54985279#2" to="626880271#0"/>
    <trip id="midnight_65" depart="68517.00" from="-25684551#7" to="192981425#0"/>
    <trip id="midnight_66" depart="68518.80" from="-25684551#1" to="51095934#1"/>
    <trip id="midnight_67" depart="68520.60" from="51095934#10" to="-50449361#1"/>
    <trip id="midnight_68" depart="68522.40" from="192981424#0" to="25684551#2"/>
    <trip id="midnight_69" depart="68524.20" from="-53103882#0" to="54985260#8"/>
    <trip id="midnight_70" depart="68526.00" from="-88247764#4" to="-51095934#13"/>
    <trip id="midnight_71" depart="68527.80" from="25504350#4" to="50831915#9"/>
    <trip id="midnight_72" depart="68529.60" from="-51095930#0" to="-54985279#1"/>
    <trip id="midnight_73" depart="68531.40" from="88247764#8" to="477271462#3"/>
    <trip id="midnight_74" depart="68533.20" from="1075767203#0" to="25504350#0"/>
    <trip id="midnight_75" depart="68535.00" from="-477271462#3" to="-51095934#5"/>
    <trip id="midnight_76" depart="68536.80" from="-51095934#3" to="-51095934#4"/>
    <trip id="midnight_77" depart="68538.60" from="-25684551#10" to="37177801#7"/>
    <trip id="midnight_78" depart="68540.40" from="-51095934#2" to="580760138#6"/>
    <trip id="midnight_79" depart="68542.20" from="54985260#5" to="-25684551#2"/>
    <trip id="midnight_80" depart="68544.00" from="-51095934#6" to="49830666#4"/>
    <trip id="midnight_81" depart="68545.80" from="-51095934#10" to="-50449361#3"/>
    <trip id="midnight_82" depart="68547.60" from="622102031#4" to="25684557#0"/>
    <trip id="midnight_83" depart="68549.40" from="52152425#0" to="-51095930#0"/>
    <trip id="midnight_84" depart="68551.20" from="-25684557#1" to="1124346622#0"/>
    <trip id="midnight_85" depart="68553.00" from="-88247764#4" to="192981424#0"/>
    <trip id="midnight_86" depart="68554.80" from="50831915#6" to="49830666#6"/>
    <trip id="midnight_87" depart="68556.60" from="88247764#3" to="-25684557#3"/>
    <trip id="midnight_88" depart="68558.40" from="-829563410#0" to="-580760138#6"/>
    <trip id="midnight_89" depart="68560.20" from="54985260#6" to="-52152425#2"/>
    <trip id="midnight_90" depart="68562.00" from="-88247764#4" to="-54985260#12"/>
    <trip id="midnight_91" depart="68563.80" from="-51510530" to="622102030#3"/>
    <trip id="midnight_92" depart="68565.60" from="1124346622#0" to="54985260#4"/>
    <trip id="midnight_93" depart="68567.40" from="25684487" to="-25504350#3"/>
    <trip id="midnight_94" depart="68569.20" from="88247764#9" to="54985260#1"/>
    <trip id="midnight_95" depart="68571.00" from="829563410#2" to="622102031#0"/>
    <trip id="midnight_96" depart="68572.80" from="54985260#15" to="-50831915#6"/>
    <trip id="midnight_97" depart="68574.60" from="192981424#4" to="-51095934#14"/>
    <trip id="midnight_98" depart="68576.40" from="-829563410#0" to="-25504350#6"/>
    <trip id="midnight_99" depart="68578.20" from="-622102031#1" to="88247764#4"/>
    <trip id="midnight_100" depart="68580.00" from="-53103882#0" to="51095934#4"/>
    <trip id="midnight_101" depart="68581.80" from="170083666#0" to="-88247764#9"/>
    <trip id="midnight_102" depart="68583.60" from="67549357#1" to="88247764#8"/>
    <trip id="midnight_103" depart="68585.40" from="25684551#10" to="50831915#5"/>
    <trip id="midnight_104" depart="68587.20" from="-50831915#1" to="-54985260#5"/>
    <trip id="midnight_105" depart="68589.00" from="829563410#1" to="25684557#4"/>
    <trip id="midnight_106" depart="68590.80" from="25504350#5" to="50831919#1"/>
    <trip id="midnight_107" depart="68592.60" from="192987238#0" to="54985260#16"/>
    <trip id="midnight_108" depart="68594.40" from="-50831915#10" to="744871126#0"/>
    <trip id="midnight_109" depart="68596.20" from="-25684551#5" to="-50831918#0"/>
    <trip id="midnight_110" depart="68598.00" from="262767663#0" to="49830666#7"/>
    <trip id="midnight_111" depart="68599.80" from="-51095934#5" to="-477271462#4"/>
    <trip id="midnight_112" depart="68601.60" from="580760138#1" to="-52152425#1"/>
    <trip id="midnight_113" depart="68603.40" from="262767663#0" to="37177801#2"/>
    <trip id="midnight_114" depart="68605.20" from="-88247764#3" to="25684557#5"/>
    <trip id="midnight_115" depart="68607.00" from="25486115#2" to="622102031#3"/>
    <trip id="midnight_116" depart="68608.80" from="-51095930#2" to="50831915#4"/>
    <trip id="midnight_117" depart="68610.60" from="-51095934#6" to="-88247764#0"/>
    <trip id="midnight_118" depart="68612.40" from="49830666#1" to="-54985260#7"/>
    <trip id="midnight_119" depart="68614.20" from="-54985260#6" to="51095930#0"/>
    <trip id="midnight_120" depart="68616.00" from="-25684551#2" to="186475564#2"/>
    <trip id="midnight_121" depart="68617.80" from="88247764#9" to="88247764#8"/>
    <trip id="midnight_122" depart="68619.60" from="-25684551#2" to="-51095934#14"/>
    <trip id="midnight_123" depart="68621.40" from="-53103882#0" to="622102031#3"/>
    <trip id="midnight_124" depart="68623.20" from="54985279#3" to="54985279#1"/>
    <trip id="midnight_125" depart="68625.00" from="-622102030#2" to="-50831915#3"/>
    <trip id="midnight_126" depart="68626.80" from="54985260#1" to="50831915#1"/>
    <trip id="midnight_127" depart="68628.60" from="477271462#1" to="-1124346622#1"/>
    <trip id="midnight_128" depart="68630.40" from="53103893#0" to="-54985260#6"/>
    <trip id="midnight_129" depart="68632.20" from="477271462#4" to="622102031#5"/>
    <trip id="midnight_130" depart="68634.00" from="-50449361#3" to="-477271462#2"/>
    <trip id="midnight_131" depart="68635.80" from="-25684557#5" to="25684551#4"/>
    <trip id="midnight_132" depart="68637.60" from="-53103893#1" to="37177801#11"/>
    <trip id="midnight_133" depart="68639.40" from="50831915#10" to="-51095934#10"/>
    <trip id="midnight_134" depart="68641.20" from="192981424#6" to="580760138#6"/>
    <trip id="midnight_135" depart="68643.00" from="54985260#14" to="-25684557#0"/>
    <trip id="midnight_136" depart="68644.80" from="-88247764#4" to="-54985260#12"/>
    <trip id="midnight_137" depart="68646.60" from="-1075767203#1" to="51095934#13"/>
    <trip id="midnight_138" depart="68648.40" from="50831916#0" to="25684551#3"/>
    <trip id="midnight_139" depart="68650.20" from="-88247764#6" to="-1124346622#1"/>
    <trip id="midnight_140" depart="68652.00" from="-25684551#3" to="54985279#2"/>
    <trip id="midnight_141" depart="68653.80" from="580760138#6" to="25684551#10"/>
    <trip id="midnight_142" depart="68655.60" from="54985260#1" to="25684557#5"/>
    <trip id="midnight_143" depart="68657.40" from="-50831914#1" to="-50449361#1"/>
    <trip id="midnight_144" depart="68659.20" from="-54985260#3" to="580760138#3"/>
    <trip id="midnight_145" depart="68661.00" from="51095934#9" to="54985260#4"/>
    <trip id="midnight_146" depart="68662.80" from="580760138#4" to="-51095934#13"/>
    <trip id="midnight_147" depart="68664.60" from="-51510530" to="-25684557#4"/>
    <trip id="midnight_148" depart="68666.40" from="51095934#2" to="54985279#3"/>
    <trip id="midnight_149" depart="68668.20" from="-829563410#2" to="37177801#3"/>
    <trip id="midnight_150" depart="68670.00" from="-50831915#1" to="622102031#1"/>
    <trip id="midnight_151" depart="68671.80" from="54985260#7" to="88247764#1"/>
    <trip id="midnight_152" depart="68673.60" from="52152425#1" to="54985279#2"/>
    <trip id="midnight_153" depart="68675.40" from="-186475564#0" to="50831917"/>
    <trip id="midnight_154" depart="68677.20" from="-54985279#2" to="622102031#2"/>
    <trip id="midnight_155" depart="68679.00" from="51543398#0" to="54985260#5"/>
    <trip id="midnight_156" depart="68680.80" from="52152425#1" to="-54985260#0"/>
    <trip id="midnight_157" depart="68682.60" from="51095934#5" to="-477271454"/>
    <trip id="midnight_158" depart="68684.40" from="54985279#0" to="54985260#3"/>
    <trip id="midnight_159" depart="68686.20" from="-51095934#14" to="53103882#1"/>
    <trip id="midnight_160" depart="68688.00" from="170083666#2" to="-54985260#9"/>
    <trip id="midnight_161" depart="68689.80" from="51095934#8" to="-51095934#7"/>
    <trip id="midnight_162" depart="68691.60" from="-186475564#0" to="-51095930#1"/>
    <trip id="midnight_163" depart="68693.40" from="-54985279#1" to="54985260#5"/>
    <trip id="midnight_164" depart="68695.20" from="829563410#1" to="-54985260#13"/>
    <trip id="midnight_165" depart="68697.00" from="88247764#2" to="25504350#7"/>
    <trip id="midnight_166" depart="68698.80" from="622102031#5" to="-477271462#2"/>
    <trip id="midnight_167" depart="68700.60" from="829563410#2" to="-50831916#1"/>
    <trip id="midnight_168" depart="68702.40" from="-25684557#5" to="1124346622#2"/>
    <trip id="midnight_169" depart="68704.20" from="50831915#5" to="-54985279#2"/>
    <trip id="midnight_170" depart="68706.00" from="277523407#1" to="25486114#1"/>
    <trip id="midnight_171" depart="68707.80" from="-622102031#4" to="25684557#3"/>
    <trip id="midnight_172" depart="68709.60" from="-51510531#1" to="50831915#11"/>
    <trip id="midnight_173" depart="68711.40" from="-1075767203#0" to="622102031#0"/>
    <trip id="midnight_174" depart="68713.20" from="25504350#4" to="50831915#5"/>
    <trip id="midnight_175" depart="68715.00" from="50831916#1" to="49830666#5"/>
    <trip id="midnight_176" depart="68716.80" from="-620932850#2" to="-25684551#2"/>
    <trip id="midnight_177" depart="68718.60" from="477271462#5" to="-580760138#2"/>
    <trip id="midnight_178" depart="68720.40" from="-54985260#5" to="54985260#14"/>
    <trip id="midnight_179" depart="68722.20" from="50831915#2" to="-54985260#7"/>
    <trip id="midnight_180" depart="68724.00" from="-54985260#3" to="-88247764#4"/>
    <trip id="midnight_181" depart="68725.80" from="-829563410#0" to="-54985260#5"/>
    <trip id="midnight_182" depart="68727.60" from="-50449361#1" to="-88247764#8"/>
    <trip id="midnight_183" depart="68729.40" from="622102031#5" to="50449361#1"/>
    <trip id="midnight_184" depart="68731.20" from="580760138#6" to="37177801#15"/>
    <trip id="midnight_185" depart="68733.00" from="-54985260#15" to="25684551#2"/>
    <trip id="midnight_186" depart="68734.80" from="-1075767203#0" to="-54985260#2"/>
    <trip id="midnight_187" depart="68736.60" from="-88247764#7" to="25684557#4"/>
    <trip id="midnight_188" depart="68738.40" from="477271462#1" to="186475564#4"/>
    <trip id="midnight_189" depart="68740.20" from="1124346622#0" to="-51095934#14"/>
    <trip id="midnight_190" depart="68742.00" from="192981424#0" to="580760138#4"/>
    <trip id="midnight_191" depart="68743.80" from="51095934#9" to="-50831915#7"/>
    <trip id="midnight_192" depart="68745.60" from="-25684551#6" to="25486115#2"/>
    <trip id="midnight_193" depart="68747.40" from="53103893#0" to="51095930#0"/>
    <trip id="midnight_194" depart="68749.20" from="49830666#2" to="-51095934#5"/>
    <trip id="midnight_195" depart="68751.00" from="-51095930#0" to="-186475564#2"/>
    <trip id="midnight_196" depart="68752.80" from="-51095934#8" to="192981424#3"/>
    <trip id="midnight_197" depart="68754.60" from="54985260#15" to="-25684551#3"/>
    <trip id="midnight_198" depart="68756.40" from="-88247764#10" to="37177801#6"/>
    <trip id="midnight_199" depart="68758.20" from="-50831919#0" to="50831914#0"/>
    <trip id="midnight_200" depart="68760.00" from="192981425#0" to="-52152425#0"/>
    <trip id="midnight_201" depart="68761.80" from="477271462#1" to="-1124346622#0"/>
    <trip id="midnight_202" depart="68763.60" from="50831919#0" to="51095934#13"/>
    <trip id="midnight_203" depart="68765.40" from="-25684557#5" to="1075767203#0"/>
    <trip id="midnight_204" depart="68767.20" from="25486115#0" to="-25504350#3"/>
    <trip id="midnight_205" depart="68769.00" from="-51510530" to="54985260#14"/>
    <trip id="midnight_206" depart="68770.80" from="170083666#0" to="51510531#0"/>
    <trip id="midnight_207" depart="68772.60" from="49830666#0" to="88247764#5"/>
    <trip id="midnight_208" depart="68774.40" from="262767663#0" to="626880271#1"/>
    <trip id="midnight_209" depart="68776.20" from="580760138#1" to="37177801#14"/>
    <trip id="midnight_210" depart="68778.00" from="50831915#2" to="192987238#4"/>
    <trip id="midnight_211" depart="68779.80" from="54985260#0" to="25684551#2"/>
    <trip id="midnight_212" depart="68781.60" from="580760138#4" to="50831918#1"/>
    <trip id="midnight_213" depart="68783.40" from="192981424#0" to="-53369130#0"/>
    <trip id="midnight_214" depart="68785.20" from="-51095934#9" to="37177801#9"/>
    <trip id="midnight_215" depart="68787.00" from="51095934#10" to="25504350#1"/>
    <trip id="midnight_216" depart="68788.80" from="-25684551#3" to="-54985260#15"/>
    <trip id="midnight_217" depart="68790.60" from="-53103893#1" to="-54985279#4"/>
    <trip id="midnight_218" depart="68792.40" from="25504350#5" to="-50449361#5"/>
    <trip id="midnight_219" depart="68794.20" from="-51095934#3" to="50449361#7"/>
    <trip id="midnight_220" depart="68796.00" from="50831914#0" to="-25684551#0"/>
    <trip id="midnight_221" depart="68797.80" from="-829563410#2" to="25684440#1"/>
    <trip id="midnight_222" depart="68799.60" from="-88247764#10" to="-51095934#12"/>
    <trip id="midnight_223" depart="68801.40" from="-88247764#3" to="580760138#6"/>
    <trip id="midnight_224" depart="68803.20" from="25684557#2" to="50831914#0"/>
    <trip id="midnight_225" depart="68805.00" from="54985260#4" to="51095934#11"/>
    <trip id="midnight_226" depart="68806.80" from="-622102031#2" to="-1124346622#0"/>
    <trip id="midnight_227" depart="68808.60" from="-580760138#5" to="51095930#1"/>
    <trip id="midnight_228" depart="68810.40" from="54985260#3" to="64973297#0"/>
    <trip id="midnight_229" depart="68812.20" from="-88247764#3" to="50831919#1"/>
    <trip id="midnight_230" depart="68814.00" from="-51095934#13" to="-51095934#3"/>
    <trip id="midnight_231" depart="68815.80" from="-88247764#9" to="-25486114#0"/>
    <trip id="midnight_232" depart="68817.60" from="-54985279#4" to="50449361#1"/>
    <trip id="midnight_233" depart="68819.40" from="-829563410#1" to="-50831915#5"/>
    <trip id="midnight_234" depart="68821.20" from="186475564#1" to="-50449361#1"/>
    <trip id="midnight_235" depart="68823.00" from="-622102031#7" to="25684551#8"/>
    <trip id="midnight_236" depart="68824.80" from="-186475564#1" to="477271462#0"/>
    <trip id="midnight_237" depart="68826.60" from="-50449361#4" to="186475564#3"/>
    <trip id="midnight_238" depart="68828.40" from="-25504350#1" to="-622102031#6"/>
    <trip id="midnight_239" depart="68830.20" from="-51095934#1" to="-580760138#1"/>
    <trip id="midnight_240" depart="68832.00" from="51095934#0" to="-622102031#6"/>
    <trip id="midnight_241" depart="68833.80" from="51095930#0" to="53369130#2"/>
    <trip id="midnight_242" depart="68835.60" from="-51510531#0" to="-25684551#6"/>
    <trip id="midnight_243" depart="68837.40" from="-130503625#2" to="25684440#0"/>
    <trip id="midnight_244" depart="68839.20" from="88247764#9" to="-620932850#3"/>
    <trip id="midnight_245" depart="68841.00" from="477271454" to="51095934#3"/>
    <trip id="midnight_246" depart="68842.80" from="477271462#0" to="51095930#1"/>
    <trip id="midnight_247" depart="68844.60" from="64973297#0" to="-51095934#1"/>
    <trip id="midnight_248" depart="68846.40" from="-130503625#2" to="-50831915#1"/>
    <trip id="midnight_249" depart="68848.20" from="-477271462#5" to="49830666#5"/>
    <trip id="midnight_250" depart="68850.00" from="25684551#4" to="-51095934#3"/>
    <trip id="midnight_251" depart="68851.80" from="50449361#4" to="51095934#11"/>
    <trip id="midnight_252" depart="68853.60" from="-50831915#4" to="37177801#12"/>
    <trip id="midnight_253" depart="68855.40" from="50831918#0" to="-477271462#2"/>
    <trip id="midnight_254" depart="68857.20" from="53103893#1" to="829563410#0"/>
    <trip id="midnight_255" depart="68859.00" from="-25684557#5" to="-186475564#2"/>
    <trip id="midnight_256" depart="68860.80" from="-54985260#4" to="50449361#1"/>
    <trip id="midnight_257" depart="68862.60" from="67549357#1" to="-88247764#0"/>
    <trip id="midnight_258" depart="68864.40" from="50831915#1" to="-25684551#4"/>
    <trip id="midnight_259" depart="68866.20" from="50449361#1" to="37177801#5"/>
    <trip id="midnight_260" depart="68868.00" from="-25684557#3" to="51095934#13"/>
    <trip id="midnight_261" depart="68869.80" from="54985260#2" to="37177801#1"/>
    <trip id="midnight_262" depart="68871.60" from="-477271462#3" to="88247764#3"/>
    <trip id="midnight_263" depart="68873.40" from="51095934#3" to="-620932850#2"/>
    <trip id="midnight_264" depart="68875.20" from="-88247764#6" to="-622102031#3"/>
    <trip id="midnight_265" depart="68877.00" from="192987238#1" to="-620932850#0"/>
    <trip id="midnight_266" depart="68878.80" from="54985260#15" to="53103893#1"/>
    <trip id="midnight_267" depart="68880.60" from="-25684557#4" to="744871126#0"/>
    <trip id="midnight_268" depart="68882.40" from="50831914#0" to="1124346622#2"/>
    <trip id="midnight_269" depart="68884.20" from="50831915#7" to="829563410#0"/>
    <trip id="midnight_270" depart="68886.00" from="-53103893#0" to="51543398#1"/>
    <trip id="midnight_271" depart="68887.80" from="25504350#4" to="192981424#7"/>
    <trip id="midnight_272" depart="68889.60" from="-88247764#9" to="50831915#9"/>
    <trip id="midnight_273" depart="68891.40" from="-53103882#1" to="54985260#15"/>
    <trip id="midnight_274" depart="68893.20" from="54985260#0" to="-25684551#8"/>
    <trip id="midnight_275" depart="68895.00" from="54985279#4" to="-52152425#0"/>
    <trip id="midnight_276" depart="68896.80" from="186475564#0" to="37177801#13"/>
    <trip id="midnight_277" depart="68898.60" from="-622102031#1" to="-25486114#0"/>
    <trip id="midnight_278" depart="68900.40" from="54985260#2" to="-50831917"/>
    <trip id="midnight_279" depart="68902.20" from="-51095934#10" to="51095934#9"/>
    <trip id="midnight_280" depart="68904.00" from="-54985279#5" to="54985279#1"/>
    <trip id="midnight_281" depart="68905.80" from="50449361#5" to="-54985260#11"/>
    <trip id="midnight_282" depart="68907.60" from="-1124346622#1" to="626880271#0"/>
    <trip id="midnight_283" depart="68909.40" from="-25684551#7" to="50831915#5"/>
    <trip id="midnight_284" depart="68911.20" from="192981424#6" to="51095934#0"/>
    <trip id="midnight_285" depart="68913.00" from="50449361#1" to="477271462#1"/>
    <trip id="midnight_286" depart="68914.80" from="192981424#6" to="51095934#7"/>
    <trip id="midnight_287" depart="68916.60" from="-25684557#0" to="-51095934#4"/>
    <trip id="midnight_288" depart="68918.40" from="50449361#1" to="-54985260#9"/>
    <trip id="midnight_289" depart="68920.20" from="25684557#1" to="192981424#3"/>
    <trip id="midnight_290" depart="68922.00" from="25504350#1" to="1075767203#0"/>
    <trip id="midnight_291" depart="68923.80" from="50831917" to="-580760138#3"/>
    <trip id="midnight_292" depart="68925.60" from="50449361#6" to="-54985260#1"/>
    <trip id="midnight_293" depart="68927.40" from="-51510531#0" to="-477271462#4"/>
    <trip id="midnight_294" depart="68929.20" from="-50831918#1" to="-477271462#4"/>
    <trip id="midnight_295" depart="68931.00" from="25504350#3" to="51095934#1"/>
    <trip id="midnight_296" depart="68932.80" from="-50831916#1" to="-51095934#2"/>
    <trip id="midnight_297" depart="68934.60" from="192981424#4" to="50831915#7"/>
    <trip id="midnight_298" depart="68936.40" from="88247764#1" to="25504350#3"/>
    <trip id="midnight_299" depart="68938.20" from="-54985260#0" to="-25684557#3"/>
    <trip id="midnight_300" depart="68940.00" from="-50831919#0" to="-51095934#7"/>
    <trip id="midnight_301" depart="68941.80" from="-50831915#9" to="-130503625#1"/>
    <trip id="midnight_302" depart="68943.60" from="25504350#2" to="-54985260#11"/>
    <trip id="midnight_303" depart="68945.40" from="88247764#1" to="25684551#4"/>
    <trip id="midnight_304" depart="68947.20" from="50449361#3" to="-50449361#0"/>
    <trip id="midnight_305" depart="68949.00" from="54985260#9" to="192981425#1"/>
    <trip id="midnight_306" depart="68950.80" from="54985279#0" to="25684557#2"/>
    <trip id="midnight_307" depart="68952.60" from="186475564#2" to="130503625#1"/>
    <trip id="midnight_308" depart="68954.40" from="-50831916#1" to="-25504350#3"/>
    <trip id="midnight_309" depart="68956.20" from="622102031#6" to="192981424#4"/>
    <trip id="midnight_310" depart="68958.00" from="53369130#0" to="-88247764#10"/>
    <trip id="midnight_311" depart="68959.80" from="-25684551#2" to="37177801#6"/>
    <trip id="midnight_312" depart="68961.60" from="-25504350#2" to="-50831915#0"/>
    <trip id="midnight_313" depart="68963.40" from="25684551#3" to="-54985260#8"/>
    <trip id="midnight_314" depart="68965.20" from="88247764#7" to="-477271462#3"/>
    <trip id="midnight_315" depart="68967.00" from="51095934#1" to="37177801#11"/>
    <trip id="midnight_316" depart="68968.80" from="51095934#7" to="-51095934#6"/>
    <trip id="midnight_317" depart="68970.60" from="25486115#2" to="170083666#2"/>
    <trip id="midnight_318" depart="68972.40" from="1124346622#0" to="54985260#3"/>
    <trip id="midnight_319" depart="68974.20" from="88247764#6" to="-54985260#9"/>
    <trip id="midnight_320" depart="68976.00" from="37177801#12" to="37177801#12"/>
    <trip id="midnight_321" depart="68977.80" from="50831916#0" to="626880271#0"/>
    <trip id="midnight_322" depart="68979.60" from="-51095934#0" to="-51095934#13"/>
    <trip id="midnight_323" depart="68981.40" from="477271462#3" to="-50831915#2"/>
    <trip id="midnight_324" depart="68983.20" from="-50831915#7" to="-25684551#4"/>
    <trip id="midnight_325" depart="68985.00" from="-1075767203#1" to="170083666#2"/>
    <trip id="midnight_326" depart="68986.80" from="25684557#5" to="-54985260#3"/>
    <trip id="midnight_327" depart="68988.60" from="-51095934#3" to="50831915#10"/>
    <trip id="midnight_328" depart="68990.40" from="50449361#6" to="186475564#0"/>
    <trip id="midnight_329" depart="68992.20" from="50449361#0" to="622102030#3"/>
    <trip id="midnight_330" depart="68994.00" from="51095934#5" to="37177801#4"/>
    <trip id="midnight_331" depart="68995.80" from="477271462#3" to="622102031#3"/>
    <trip id="midnight_332" depart="68997.60" from="-88247764#5" to="25684551#1"/>
    <trip id="midnight_333" depart="68999.40" from="53369130#1" to="-25684551#2"/>
    <trip id="midnight_334" depart="69001.20" from="-50831915#4" to="-54985279#0"/>
    <trip id="midnight_335" depart="69003.00" from="50831918#0" to="25684557#0"/>
    <trip id="midnight_336" depart="69004.80" from="-54985260#10" to="-50449361#0"/>
    <trip id="midnight_337" depart="69006.60" from="50449361#0" to="50831914#1"/>
    <trip id="midnight_338" depart="69008.40" from="622102031#6" to="192987238#2"/>
    <trip id="midnight_339" depart="69010.20" from="192981425#0" to="-25684551#6"/>
    <trip id="midnight_340" depart="69012.00" from="-25486114#1" to="1124346622#1"/>
    <trip id="midnight_341" depart="69013.80" from="-54985260#8" to="-52152425#2"/>
    <trip id="midnight_342" depart="69015.60" from="-25684551#9" to="744871126#1"/>
    <trip id="midnight_343" depart="69017.40" from="54985260#10" to="25684557#2"/>
    <trip id="midnight_344" depart="69019.20" from="64973297#0" to="88247764#9"/>
    <trip id="midnight_345" depart="69021.00" from="49830666#2" to="-54985260#1"/>
    <trip id="midnight_346" depart="69022.80" from="-25486114#1" to="51095930#2"/>
    <trip id="midnight_347" depart="69024.60" from="622102030#0" to="-50831917"/>
    <trip id="midnight_348" depart="69026.40" from="25684557#2" to="37177801#8"/>
    <trip id="midnight_349" depart="69028.20" from="192981424#7" to="-25684557#0"/>
    <trip id="midnight_350" depart="69030.00" from="-580760138#3" to="-580760138#3"/>
    <trip id="midnight_351" depart="69031.80" from="49830666#1" to="54985260#2"/>
    <trip id="midnight_352" depart="69033.60" from="-54985279#1" to="50449361#7"/>