<?xml version="1.0" encoding="UTF-8"?>

<!-- generated on 2026-02-19 20:21:38.053302 by Eclipse SUMO randomTrips.py v1_26_0+0000-fa7df22d7f1
<configuration>
    <net-file value=".\data\networks\city_001.net.xml"/>
    <output-trip-file value=".\data\routes\morning.rou.xml"/>
    <prefix value="morning_"/>
    <fringe-factor value="30"/>
    <begin value="25200.0"/>
    <end value="36000.0"/>
    <period value="0.5"/>
    <binomial value="5"/>
</configuration>
-->

<routes xmlns:xsi="http://www.w3.org/2001/XMLSchema-instance" xsi:noNamespaceSchemaLocation="http://sumo.dlr.de/xsd/routes_file.xsd">
    <trip id="morning_0" depart="25201.00" from="-50831919#1" to="-51543398#1"/>
    <trip id="morning_1" depart="25203.00" from="-53103899" to="-25486115#0"/>
    <trip id="morning_2" depart="25203.00" from="1075767203#1" to="-25486115#0"/>
    <trip id="morning_3" depart="25204.00" from="25684551#0" to="25684440#1"/>
    <trip id="morning_4" depart="25204.00" from="25486505" to="51510530"/>
    <trip id="morning_5" depart="25204.00" from="51543398#0" to="50831918#0"/>
    <trip id="morning_6" depart="25205.00" from="-25684557#5" to="622102031#6"/>
    <trip id="morning_7" depart="25206.00" from="-25486114#1" to="-25684551#0"/>
    <trip id="morning_8" depart="25206.00" from="192987238#3" to="51510531#1"/>
    <trip id="morning_9" depart="25206.00" from="-50831916#0" to="-54985260#5"/>
    <trip id="morning_10" depart="25207.00" from="-50831918#1" to="-25684551#0"/>
    <trip id="morning_11" depart="25207.00" from="25684487" to="-622102031#7"/>
    <trip id="morning_12" depart="25207.00" from="-50831915#11" to="-53369130#0"/>
    <trip id="morning_13" depart="25208.00" from="49830666#7" to="-50449361#2"/>
    <trip id="morning_14" depart="25208.00" from="829563410#1" to="50449361#7"/>
    <trip id="morning_15" depart="25208.00" from="-133453038" to="-580760138#0"/>
    <trip id="morning_16" depart="25209.00" from="-50831915#11" to="580760138#3"/>
    <trip id="morning_17" depart="25209.00" from="25684551#0" to="1124346622#2"/>
    <trip id="morning_18" depart="25210.00" from="-50831918#1" to="25684440#1"/>
    <trip id="morning_19" depart="25211.00" from="25486505" to="54985260#0"/>
    <trip id="morning_20" depart="25212.00" from="-50831915#11" to="88247764#7"/>
    <trip id="morning_21" depart="25212.00" from="-133453038" to="-25684551#0"/>
    <trip id="morning_22" depart="25213.00" from="-53103882#1" to="88247764#5"/>
    <trip id="morning_23" depart="25213.00" from="477271462#3" to="50831915#11"/>
    <trip id="morning_24" depart="25213.00" from="25684551#0" to="-25684551#0"/>
    <trip id="morning_25" depart="25214.00" from="-88247764#6" to="-50831916#1"/>
    <trip id="morning_26" depart="25214.00" from="25684551#0" to="37177801#15"/>
    <trip id="morning_27" depart="25214.00" from="50831915#1" to="25684440#1"/>
    <trip id="morning_28" depart="25216.00" from="-51510530" to="-25486115#0"/>
    <trip id="morning_29" depart="25216.00" from="-186475564#2" to="53103899"/>
    <trip id="morning_30" depart="25216.00" from="-622102031#2" to="-25684487"/>
    <trip id="morning_31" depart="25217.00" from="-580760138#3" to="25684440#1"/>
    <trip id="morning_32" depart="25217.00" from="54985260#0" to="133453038"/>
    <trip id="morning_33" depart="25218.00" from="-51095934#15" to="88247764#4"/>
    <trip id="morning_34" depart="25218.00" from="-50831915#6" to="-622102030#0"/>
    <trip id="morning_35" depart="25219.00" from="-50831915#11" to="-25684487"/>
    <trip id="morning_36" depart="25220.00" from="580760138#0" to="53103882#1"/>
    <trip id="morning_37" depart="25220.00" from="-50831918#1" to="50831915#11"/>
    <trip id="morning_38" depart="25220.00" from="-25504350#7" to="54985260#9"/>
    <trip id="morning_39" depart="25220.00" from="-25486114#1" to="133453038"/>
    <trip id="morning_40" depart="25221.00" from="-53103893#1" to="-622102030#0"/>
    <trip id="morning_41" depart="25221.00" from="-50449361#7" to="186475564#4"/>
    <trip id="morning_42" depart="25222.00" from="-50831918#1" to="54985260#16"/>
    <trip id="morning_43" depart="25222.00" from="88247764#9" to="51510531#1"/>
    <trip id="morning_44" depart="25223.00" from="-622102031#2" to="-51543398#0"/>
    <trip id="morning_45" depart="25224.00" from="-53103882#1" to="64973297#1"/>
    <trip id="morning_46" depart="25224.00" from="51095934#3" to="186475564#4"/>
    <trip id="morning_47" depart="25225.00" from="-51095934#15" to="626880271#1"/>
    <trip id="morning_48" depart="25226.00" from="25486505" to="25486114#1"/>
    <trip id="morning_49" depart="25227.00" from="64973297#1" to="-25684487"/>
    <trip id="morning_50" depart="25227.00" from="25486505" to="50831915#11"/>
    <trip id="morning_51" depart="25227.00" from="-25504350#7" to="53103899"/>
    <trip id="morning_52" depart="25227.00" from="25486505" to="477271462#1"/>
    <trip id="morning_53" depart="25228.00" from="25684557#1" to="-580760138#0"/>
    <trip id="morning_54" depart="25228.00" from="50449361#0" to="-25684487"/>
    <trip id="morning_55" depart="25228.00" from="-50831915#11" to="-53369130#0"/>
    <trip id="morning_56" depart="25229.00" from="-477271462#1" to="51510531#1"/>
    <trip id="morning_57" depart="25230.00" from="52152425#0" to="-580760138#0"/>
    <trip id="morning_58" depart="25231.00" from="-25504350#4" to="-25684551#0"/>
    <trip id="morning_59" depart="25231.00" from="25486505" to="50831918#1"/>
    <trip id="morning_60" depart="25231.00" from="25684487" to="-53369130#0"/>
    <trip id="morning_61" depart="25232.00" from="-53103899" to="-53369130#0"/>
    <trip id="morning_62" depart="25232.00" from="50831916#0" to="50449361#7"/>
    <trip id="morning_63" depart="25233.00" from="50449361#0" to="25684440#1"/>
    <trip id="morning_64" depart="25234.00" from="-186475564#4" to="53103899"/>
    <trip id="morning_65" depart="25234.00" from="-25504350#7" to="-580760138#0"/>
    <trip id="morning_66" depart="25234.00" from="-50831918#1" to="-25684551#0"/>
    <trip id="morning_67" depart="25235.00" from="622102030#0" to="53103882#1"/>
    <trip id="morning_68" depart="25235.00" from="50449361#0" to="-622102030#0"/>
    <trip id="morning_69" depart="25236.00" from="51095934#7" to="-25684551#0"/>
    <trip id="morning_70" depart="25236.00" from="52152425#0" to="186475564#4"/>
    <trip id="morning_71" depart="25236.00" from="51543398#0" to="-52152425#0"/>
    <trip id="morning_72" depart="25237.00" from="-50831914#1" to="-620932850#0"/>
    <trip id="morning_73" depart="25237.00" from="25684551#0" to="1124346622#2"/>
    <trip id="morning_74" depart="25239.00" from="67549357#0" to="-50831916#1"/>
    <trip id="morning_75" depart="25241.00" from="25504350#0" to="25504350#7"/>
    <trip id="morning_76" depart="25241.00" from="25486115#0" to="-53369130#0"/>
    <trip id="morning_77" depart="25241.00" from="622102030#0" to="25684440#1"/>
    <trip id="morning_78" depart="25242.00" from="-186475564#4" to="50831915#11"/>
    <trip id="morning_79" depart="25242.00" from="-51095934#15" to="53103882#1"/>
    <trip id="morning_80" depart="25242.00" from="-51095934#15" to="130503625#1"/>
    <trip id="morning_81" depart="25243.00" from="-25504350#7" to="133453038"/>
    <trip id="morning_82" depart="25243.00" from="192981425#1" to="-1075767203#0"/>
    <trip id="morning_83" depart="25244.00" from="-54985260#0" to="37177801#0"/>
    <trip id="morning_84" depart="25246.00" from="-580760138#1" to="54985260#12"/>
    <trip id="morning_85" depart="25247.00" from="-25486114#0" to="25504350#7"/>
    <trip id="morning_86" depart="25248.00" from="52152425#0" to="51095930#1"/>
    <trip id="morning_87" depart="25249.00" from="-50831915#11" to="-25486115#0"/>
    <trip id="morning_88" depart="25250.00" from="-580760138#3" to="53103882#1"/>
    <trip id="morning_89" depart="25251.00" from="-53103899" to="50449361#1"/>
    <trip id="morning_90" depart="25252.00" from="262767663#0" to="25486114#1"/>
    <trip id="morning_91" depart="25253.00" from="25684551#0" to="-130503625#2"/>
    <trip id="morning_92" depart="25253.00" from="-53103899" to="-50831915#7"/>
    <trip id="morning_93" depart="25253.00" from="-50831918#1" to="53103882#1"/>
    <trip id="morning_94" depart="25254.00" from="-50831918#1" to="50449361#7"/>
    <trip id="morning_95" depart="25254.00" from="-186475564#4" to="-54985260#15"/>
    <trip id="morning_96" depart="25254.00" from="-51095934#7" to="25684440#1"/>
    <trip id="morning_97" depart="25255.00" from="-50831918#1" to="50831915#8"/>
    <trip id="morning_98" depart="25255.00" from="-53103899" to="25684440#1"/>
    <trip id="morning_99" depart="25256.00" from="-53103899" to="54985260#16"/>
    <trip id="morning_100" depart="25256.00" from="-1124346622#2" to="-622102030#0"/>
    <trip id="morning_101" depart="25256.00" from="-50831915#11" to="170083666#2"/>
    <trip id="morning_102" depart="25256.00" from="-51510530" to="50831915#11"/>
    <trip id="morning_103" depart="25257.00" from="-54985260#9" to="-25684557#2"/>
    <trip id="morning_104" depart="25257.00" from="-53103882#1" to="25684551#2"/>
    <trip id="morning_105" depart="25257.00" from="25684551#0" to="-477271462#4"/>
    <trip id="morning_106" depart="25259.00" from="-53103882#1" to="-51543398#0"/>
    <trip id="morning_107" depart="25259.00" from="50831914#1" to="1075767203#0"/>
    <trip id="morning_108" depart="25260.00" from="-186475564#4" to="-25486115#0"/>
    <trip id="morning_109" depart="25260.00" from="25684551#0" to="51095934#15"/>
    <trip id="morning_110" depart="25260.00" from="-1124346622#2" to="-50449361#0"/>
    <trip id="morning_111" depart="25260.00" from="25684551#8" to="25684551#2"/>
    <trip id="morning_112" depart="25261.00" from="262767663#0" to="51095934#15"/>
    <trip id="morning_113" depart="25261.00" from="25504350#2" to="50831919#1"/>
    <trip id="morning_114" depart="25262.00" from="52152425#0" to="626880271#1"/>
    <trip id="morning_115" depart="25262.00" from="-1124346622#2" to="-580760138#0"/>
    <trip id="morning_116" depart="25262.00" from="50831917" to="53103882#1"/>
    <trip id="morning_117" depart="25262.00" from="67549357#0" to="51095934#15"/>
    <trip id="morning_118" depart="25263.00" from="-53369130#1" to="-88247764#1"/>
    <trip id="morning_119" depart="25263.00" from="53369130#0" to="51510531#1"/>
    <trip id="morning_120" depart="25263.00" from="64973297#1" to="50449361#7"/>
    <trip id="morning_121" depart="25263.00" from="51543398#0" to="25684440#1"/>
    <trip id="morning_122" depart="25264.00" from="53369130#0" to="51510531#1"/>
    <trip id="morning_123" depart="25264.00" from="54985260#5" to="-52152425#0"/>
    <trip id="morning_124" depart="25265.00" from="-130503625#0" to="53103882#1"/>
    <trip id="morning_125" depart="25265.00" from="-50831915#11" to="51510530"/>
    <trip id="morning_126" depart="25266.00" from="54985260#3" to="50831918#1"/>
    <trip id="morning_127" depart="25266.00" from="-1124346622#2" to="620932850#2"/>
    <trip id="morning_128" depart="25267.00" from="477271462#2" to="25486114#1"/>
    <trip id="morning_129" depart="25268.00" from="-50831915#2" to="50831915#5"/>
    <trip id="morning_130" depart="25269.00" from="25486505" to="192981425#2"/>
    <trip id="morning_131" depart="25269.00" from="277523407#0" to="-53369130#0"/>
    <trip id="morning_132" depart="25270.00" from="-25504350#7" to="-51095934#4"/>
    <trip id="morning_133" depart="25270.00" from="170083666#2" to="51095934#15"/>
    <trip id="morning_134" depart="25270.00" from="-50831915#11" to="25486114#1"/>
    <trip id="morning_135" depart="25270.00" from="-25486114#1" to="-51095934#6"/>
    <trip id="morning_136" depart="25271.00" from="-50449361#7" to="-25486115#0"/>
    <trip id="morning_137" depart="25271.00" from="67549357#0" to="25684440#1"/>
    <trip id="morning_138" depart="25272.00" from="53369130#0" to="25486114#1"/>
    <trip id="morning_139" depart="25272.00" from="-133453038" to="580760138#1"/>
    <trip id="morning_140" depart="25272.00" from="25684487" to="-25486505"/>
    <trip id="morning_141" depart="25273.00" from="25486115#0" to="-580760138#0"/>
    <trip id="morning_142" depart="25273.00" from="50831915#2" to="37177801#15"/>
    <trip id="morning_143" depart="25274.00" from="170083666#0" to="186475564#4"/>
    <trip id="morning_144" depart="25275.00" from="25684487" to="37177801#15"/>
    <trip id="morning_145" depart="25275.00" from="-50831915#11" to="50831914#0"/>
    <trip id="morning_146" depart="25276.00" from="-50449361#7" to="-25684487"/>
    <trip id="morning_147" depart="25277.00" from="-54985260#16" to="37177801#15"/>
    <trip id="morning_148" depart="25277.00" from="-50831918#1" to="50831918#1"/>
    <trip id="morning_149" depart="25277.00" from="-50449361#5" to="-580760138#0"/>
    <trip id="morning_150" depart="25278.00" from="-25504350#7" to="50831915#11"/>
    <trip id="morning_151" depart="25278.00" from="-133453038" to="133453038"/>
    <trip id="morning_152" depart="25278.00" from="-50831918#1" to="-25684487"/>
    <trip id="morning_153" depart="25279.00" from="-133453038" to="51095934#12"/>
    <trip id="morning_154" depart="25279.00" from="25486505" to="50449361#7"/>
    <trip id="morning_155" depart="25279.00" from="-51510531#1" to="-622102030#0"/>
    <trip id="morning_156" depart="25279.00" from="262767663#0" to="-54985260#4"/>
    <trip id="morning_157" depart="25280.00" from="-51510530" to="626880271#1"/>
    <trip id="morning_158" depart="25280.00" from="-51510531#1" to="51095934#12"/>
    <trip id="morning_159" depart="25281.00" from="192987238#0" to="54985260#16"/>
    <trip id="morning_160" depart="25281.00" from="67549357#0" to="37177801#15"/>
    <trip id="morning_161" depart="25281.00" from="-477271462#1" to="25684440#1"/>
    <trip id="morning_162" depart="25281.00" from="88247764#1" to="54985260#16"/>
    <trip id="morning_163" depart="25282.00" from="52152425#0" to="25486114#1"/>
    <trip id="morning_164" depart="25282.00" from="52152425#0" to="626880271#1"/>
    <trip id="morning_165" depart="25282.00" from="192987238#2" to="1124346622#2"/>
    <trip id="morning_166" depart="25282.00" from="51510531#0" to="133453038"/>
    <trip id="morning_167" depart="25283.00" from="-51095934#15" to="37177801#15"/>
    <trip id="morning_168" depart="25283.00" from="186475564#2" to="-622102030#0"/>
    <trip id="morning_169" depart="25284.00" from="-50449361#7" to="50831917"/>
    <trip id="morning_170" depart="25284.00" from="51095930#0" to="-25486505"/>
    <trip id="morning_171" depart="25284.00" from="25684551#10" to="51510531#1"/>
    <trip id="morning_172" depart="25285.00" from="-88247764#8" to="37177801#15"/>
    <trip id="morning_173" depart="25285.00" from="-54985279#1" to="626880271#1"/>
    <trip id="morning_174" depart="25286.00" from="262767663#0" to="50449361#7"/>
    <trip id="morning_175" depart="25286.00" from="-51095934#3" to="50831918#1"/>
    <trip id="morning_176" depart="25287.00" from="-186475564#4" to="50449361#2"/>
    <trip id="morning_177" depart="25288.00" from="25684487" to="53103899"/>
    <trip id="morning_178" depart="25289.00" from="51543398#0" to="-54985279#0"/>
    <trip id="morning_179" depart="25290.00" from="-25684551#3" to="25504350#7"/>
    <trip id="morning_180" depart="25290.00" from="-186475564#4" to="53103899"/>
    <trip id="morning_181" depart="25290.00" from="580760138#0" to="-50449361#0"/>
    <trip id="morning_182" depart="25291.00" from="-50831918#1" to="-25486114#0"/>
    <trip id="morning_183" depart="25292.00" from="-54985260#16" to="-622102030#0"/>
    <trip id="morning_184" depart="25293.00" from="53103893#1" to="-51543398#0"/>
    <trip id="morning_185" depart="25294.00" from="-622102030#3" to="-52152425#0"/>
    <trip id="morning_186" depart="25294.00" from="67549357#0" to="50449361#7"/>
    <trip id="morning_187" depart="25294.00" from="25486115#0" to="50831915#11"/>
    <trip id="morning_188" depart="25295.00" from="25504350#1" to="25486114#1"/>
    <trip id="morning_189" depart="25295.00" from="51543398#0" to="37177801#15"/>
    <trip id="morning_190" depart="25295.00" from="25684487" to="477271462#3"/>
    <trip id="morning_191" depart="25296.00" from="-54985260#16" to="277523407#2"/>
    <trip id="morning_192" depart="25296.00" from="-51095934#15" to="50831919#1"/>
    <trip id="morning_193" depart="25297.00" from="-25504350#7" to="25684440#1"/>
    <trip id="morning_194" depart="25298.00" from="52152425#0" to="25486114#1"/>
    <trip id="morning_195" depart="25298.00" from="-25504350#4" to="626880271#1"/>
    <trip id="morning_196" depart="25298.00" from="67549357#0" to="53103882#1"/>
    <trip id="morning_197" depart="25299.00" from="51543398#0" to="-25486115#0"/>
    <trip id="morning_198" depart="25299.00" from="-50831918#1" to="-25486115#0"/>
    <trip id="morning_199" depart="25300.00" from="-186475564#4" to="51510531#1"/>
    <trip id="morning_200" depart="25300.00" from="-53103899" to="-50449361#0"/>
    <trip id="morning_201" depart="25302.00" from="-829563410#0" to="-25684551#0"/>
    <trip id="morning_202" depart="25302.00" from="-54985260#16" to="50831915#11"/>
    <trip id="morning_203" depart="25303.00" from="-53103899" to="-25684551#0"/>
    <trip id="morning_204" depart="25304.00" from="-51510531#1" to="186475564#4"/>
    <trip id="morning_205" depart="25304.00" from="262767663#0" to="25684440#1"/>
    <trip id="morning_206" depart="25304.00" from="-53103882#1" to="-51095934#14"/>
    <trip id="morning_207" depart="25305.00" from="53369130#0" to="186475564#4"/>
    <trip id="morning_208" depart="25305.00" from="51095934#6" to="-52152425#0"/>
    <trip id="morning_209" depart="25305.00" from="25486115#0" to="-25684487"/>
    <trip id="morning_210" depart="25306.00" from="-50831915#11" to="53103893#0"/>
    <trip id="morning_211" depart="25307.00" from="-25684551#5" to="54985260#11"/>
    <trip id="morning_212" depart="25308.00" from="53369130#0" to="-50449361#0"/>
    <trip id="morning_213" depart="25308.00" from="-50831918#1" to="-50831915#6"/>
    <trip id="morning_214" depart="25308.00" from="-1124346622#2" to="51510530"/>
    <trip id="morning_215" depart="25309.00" from="-51510530" to="-50831915#5"/>
    <trip id="morning_216" depart="25309.00" from="50449361#0" to="25504350#7"/>
    <trip id="morning_217" depart="25309.00" from="1075767203#0" to="580760138#6"/>
    <trip id="morning_218" depart="25309.00" from="51095934#2" to="53103882#1"/>
    <trip id="morning_219" depart="25310.00" from="-620932850#1" to="1124346622#2"/>
    <trip id="morning_220" depart="25310.00" from="-186475564#4" to="37177801#15"/>
    <trip id="morning_221" depart="25310.00" from="-50831919#1" to="50449361#5"/>
    <trip id="morning_222" depart="25310.00" from="88247764#3" to="25504350#7"/>
    <trip id="morning_223" depart="25311.00" from="262767663#2" to="53103882#1"/>
    <trip id="morning_224" depart="25311.00" from="-54985260#16" to="-52152425#0"/>
    <trip id="morning_225" depart="25312.00" from="-54985260#16" to="133453038"/>
    <trip id="morning_226" depart="25312.00" from="-53103899" to="50831915#11"/>
    <trip id="morning_227" depart="25312.00" from="-25684557#2" to="54985260#16"/>
    <trip id="morning_228" depart="25313.00" from="52152425#0" to="-25684551#0"/>
    <trip id="morning_229" depart="25313.00" from="50449361#0" to="51510530"/>
    <trip id="morning_230" depart="25313.00" from="-25504350#7" to="-622102030#0"/>
    <trip id="morning_231" depart="25314.00" from="25486115#0" to="-51543398#0"/>
    <trip id="morning_232" depart="25314.00" from="-25486114#1" to="53103882#1"/>
    <trip id="morning_233" depart="25315.00" from="50831915#1" to="25684557#4"/>
    <trip id="morning_234" depart="25315.00" from="622102030#0" to="51510531#1"/>
    <trip id="morning_235" depart="25316.00" from="-50449361#7" to="50831918#1"/>
    <trip id="morning_236" depart="25316.00" from="-51510530" to="-186475564#0"/>
    <trip id="morning_237" depart="25317.00" from="25684487" to="-25486115#0"/>
    <trip id="morning_238" depart="25317.00" from="-53103899" to="-622102030#0"/>
    <trip id="morning_239" depart="25318.00" from="477271462#4" to="51095934#15"/>
    <trip id="morning_240" depart="25318.00" from="-133453038" to="-50449361#0"/>
    <trip id="morning_241" depart="25319.00" from="25684551#0" to="25486114#1"/>
    <trip id="morning_242" depart="25319.00" from="50449361#1" to="-25684551#0"/>
    <trip id="morning_243" depart="25320.00" from="262767663#0" to="25486114#1"/>
    <trip id="morning_244" depart="25320.00" from="-53103882#1" to="37177801#15"/>
    <trip id="morning_245" depart="25321.00" from="-51095934#15" to="-51543398#0"/>
    <trip id="morning_246" depart="25322.00" from="-50831918#1" to="-620932850#0"/>
    <trip id="morning_247" depart="25322.00" from="50449361#0" to="-50831915#7"/>
    <trip id="morning_248" depart="25323.00" from="277523407#1" to="25486114#1"/>
    <trip id="morning_249" depart="25324.00" from="53369130#0" to="-25486505"/>
    <trip id="morning_250" depart="25324.00" from="620932850#0" to="53103882#1"/>
    <trip id="morning_251" depart="25324.00" from="-1124346622#2" to="-580760138#3"/>
    <trip id="morning_252" depart="25325.00" from="53103893#0" to="-52152425#0"/>
    <trip id="morning_253" depart="25325.00" from="-51095934#15" to="-622102030#0"/>
    <trip id="morning_254" depart="25325.00" from="-50449361#7" to="25504350#6"/>
    <trip id="morning_255" depart="25326.00" from="170083666#0" to="54985260#16"/>
    <trip id="morning_256" depart="25327.00" from="49830666#5" to="51510531#1"/>
    <trip id="morning_257" depart="25327.00" from="-25684551#4" to="-51510531#0"/>
    <trip id="morning_258" depart="25328.00" from="50831917" to="25486114#1"/>
    <trip id="morning_259" depart="25329.00" from="-186475564#4" to="186475564#4"/>
    <trip id="morning_260" depart="25329.00" from="-50831919#1" to="-25486505"/>
    <trip id="morning_261" depart="25330.00" from="-54985260#16" to="-25486505"/>
    <trip id="morning_262" depart="25330.00" from="53369130#0" to="53103882#1"/>
    <trip id="morning_263" depart="25331.00" from="-580760138#4" to="-50449361#0"/>
    <trip id="morning_264" depart="25331.00" from="-25486114#1" to="54985260#10"/>
    <trip id="morning_265" depart="25332.00" from="-50831918#1" to="186475564#1"/>
    <trip id="morning_266" depart="25332.00" from="-51543398#1" to="-54985260#12"/>
    <trip id="morning_267" depart="25334.00" from="25486505" to="51095934#9"/>
    <trip id="morning_268" depart="25334.00" from="-25486114#1" to="50831915#11"/>
    <trip id="morning_269" depart="25335.00" from="49830666#0" to="50449361#7"/>
    <trip id="morning_270" depart="25335.00" from="25486505" to="-50449361#0"/>
    <trip id="morning_271" depart="25336.00" from="67549357#0" to="50831918#0"/>
    <trip id="morning_272" depart="25336.00" from="25486505" to="54985279#2"/>
    <trip id="morning_273" depart="25336.00" from="-53103882#1" to="51510530"/>
    <trip id="morning_274" depart="25336.00" from="-51510531#1" to="-50831918#0"/>
    <trip id="morning_275" depart="25336.00" from="622102030#0" to="25486114#1"/>
    <trip id="morning_276" depart="25338.00" from="-25504350#7" to="-25684487"/>
    <trip id="morning_277" depart="25338.00" from="50831916#0" to="51510531#1"/>
    <trip id="morning_278" depart="25338.00" from="-51510530" to="51095934#15"/>
    <trip id="morning_279" depart="25339.00" from="-53103882#1" to="-50449361#1"/>
    <trip id="morning_280" depart="25340.00" from="-54985260#16" to="133453038"/>
    <trip id="morning_281" depart="25341.00" from="-54985260#16" to="-54985260#14"/>
    <trip id="morning_282" depart="25341.00" from="51543398#0" to="192981424#5"/>
    <trip id="morning_283" depart="25342.00" from="622102030#0" to="64973297#0"/>
    <trip id="morning_284" depart="25343.00" from="-53103882#1" to="25504350#7"/>
    <trip id="morning_285" depart="25343.00" from="-50831918#1" to="50449361#7"/>
    <trip id="morning_286" depart="25345.00" from="53369130#0" to="53103882#1"/>
    <trip id="morning_287" depart="25345.00" from="50831915#1" to="-53369130#0"/>
    <trip id="morning_288" depart="25346.00" from="-54985260#16" to="620932850#0"/>
    <trip id="morning_289" depart="25346.00" from="-54985260#16" to="-622102030#0"/>
    <trip id="morning_290" depart="25346.00" from="-133453038" to="25486114#1"/>
    <trip id="morning_291" depart="25346.00" from="88247764#3" to="-88247764#5"/>
    <trip id="morning_292" depart="25347.00" from="622102030#0" to="51510531#1"/>
    <trip id="morning_293" depart="25347.00" from="-51095934#10" to="51510531#1"/>
    <trip id="morning_294" depart="25347.00" from="-186475564#4" to="-53369130#0"/>
    <trip id="morning_295" depart="25348.00" from="-51095934#12" to="-580760138#0"/>
    <trip id="morning_296" depart="25348.00" from="-53103899" to="51510530"/>
    <trip id="morning_297" depart="25349.00" from="580760138#0" to="37177801#15"/>
    <trip id="morning_298" depart="25349.00" from="170083666#0" to="-52152425#0"/>
    <trip id="morning_299" depart="25349.00" from="-53369130#2" to="37177801#7"/>
    <trip id="morning_300" depart="25350.00" from="-53103899" to="50831915#11"/>
    <trip id="morning_301" depart="25350.00" from="67549357#0" to="-25684487"/>
    <trip id="morning_302" depart="25351.00" from="-54985279#2" to="50449361#7"/>
    <trip id="morning_303" depart="25351.00" from="-1124346622#2" to="51095934#8"/>
    <trip id="morning_304" depart="25352.00" from="50449361#0" to="49830666#6"/>
    <trip id="morning_305" depart="25353.00" from="-133453038" to="25684440#1"/>
    <trip id="morning_306" depart="25353.00" from="51095934#10" to="192981424#0"/>
    <trip id="morning_307" depart="25354.00" from="51095930#1" to="186475564#4"/>
    <trip id="morning_308" depart="25354.00" from="-133453038" to="-51543398#0"/>
    <trip id="morning_309" depart="25355.00" from="622102030#0" to="25504350#7"/>
    <trip id="morning_310" depart="25355.00" from="50449361#0" to="-51095934#3"/>
    <trip id="morning_311" depart="25355.00" from="51095934#12" to="53103882#1"/>
    <trip id="morning_312" depart="25356.00" from="-25504350#7" to="-829563410#1"/>
    <trip id="morning_313" depart="25356.00" from="67549357#0" to="25486114#1"/>
    <trip id="morning_314" depart="25357.00" from="25486505" to="51510531#1"/>
    <trip id="morning_315" depart="25358.00" from="-186475564#4" to="50831914#1"/>
    <trip id="morning_316" depart="25359.00" from="25486505" to="133453038"/>
    <trip id="morning_317" depart="25359.00" from="-133453038" to="53103893#1"/>
    <trip id="morning_318" depart="25359.00" from="88247764#7" to="-53369130#0"/>
    <trip id="morning_319" depart="25360.00" from="25684551#0" to="-622102031#5"/>
    <trip id="morning_320" depart="25360.00" from="25504350#2" to="51095934#15"/>
    <trip id="morning_321" depart="25360.00" from="-186475564#4" to="51095934#15"/>
    <trip id="morning_322" depart="25361.00" from="-53103882#1" to="25684551#6"/>
    <trip id="morning_323" depart="25361.00" from="50831915#1" to="25684557#4"/>
    <trip id="morning_324" depart="25361.00" from="25684551#0" to="-52152425#2"/>
    <trip id="morning_325" depart="25362.00" from="50449361#0" to="25486114#1"/>
    <trip id="morning_326" depart="25362.00" from="25486115#0" to="-53369130#0"/>
    <trip id="morning_327" depart="25364.00" from="-54985260#16" to="88247764#5"/>
    <trip id="morning_328" depart="25365.00" from="580760138#1" to="25486114#1"/>
    <trip id="morning_329" depart="25365.00" from="53369130#0" to="186475564#4"/>
    <trip id="morning_330" depart="25365.00" from="262767663#0" to="53103882#1"/>
    <trip id="morning_331" depart="25366.00" from="-51510531#0" to="-25504350#3"/>
    <trip id="morning_332" depart="25366.00" from="-50831915#11" to="-50449361#0"/>
    <trip id="morning_333" depart="25367.00" from="25486115#0" to="-829563410#2"/>
    <trip id="morning_334" depart="25367.00" from="-51095934#15" to="88247764#9"/>
    <trip id="morning_335" depart="25368.00" from="67549357#0" to="50449361#7"/>
    <trip id="morning_336" depart="25368.00" from="54985260#14" to="51095934#15"/>
    <trip id="morning_337" depart="25369.00" from="67549357#0" to="133453038"/>
    <trip id="morning_338" depart="25369.00" from="-25504350#7" to="-50449361#0"/>
    <trip id="morning_339" depart="25369.00" from="-51510530" to="50831918#1"/>
    <trip id="morning_340" depart="25370.00" from="622102030#0" to="53103899"/>
    <trip id="morning_341" depart="25371.00" from="25684487" to="25684440#1"/>
    <trip id="morning_342" depart="25371.00" from="-51095934#15" to="25504350#7"/>
    <trip id="morning_343" depart="25371.00" from="622102030#0" to="-50449361#0"/>
    <trip id="morning_344" depart="25372.00" from="-133453038" to="50449361#7"/>
    <trip id="morning_345" depart="25373.00" from="622102031#6" to="25486114#1"/>
    <trip id="morning_346" depart="25373.00" from="-186475564#4" to="-25486505"/>
    <trip id="morning_347" depart="25374.00" from="25504350#1" to="-580760138#0"/>
    <trip id="morning_348" depart="25374.00" from="-51510531#1" to="25684440#1"/>
    <trip id="morning_349" depart="25374.00" from="-54985260#8" to="-53369130#0"/>
    <trip id="morning_350" depart="25375.00" from="-25486114#1" to="-54985260#6"/>
    <trip id="morning_351" depart="25376.00" from="25684487" to="-52152425#0"/>
    <trip id="morning_352" depart="25376.00" from="-51510530" to="277523407#0"/>
    <trip id="morning_353" depart="25377.00" from="50831915#1" to="25486114#1"/>
    <trip id="morning_354" depart="25377.00" from="-1124346622#2" to="580760138#6"/>
    <trip id="morning_355" depart="25378.00" from="-51510531#1" to="-25486505"/>
    <trip id="morning_356" depart="25380.00" from="-53103882#1" to="25684551#9"/>
    <trip id="morning_357" depart="25380.00" from="25486114#0" to="-25684487"/>
    <trip id="morning_358" depart="25381.00" from="829563410#0" to="50831915#11"/>