<?xml version="1.0" encoding="UTF-8"?>

<!-- generated on 2026-02-19 20:16:01.553362 by Eclipse SUMO randomTrips.py v1_26_0+0000-fa7df22d7f1
<configuration>
    <net-file value=".\data\networks\city_001.net.xml"/>
    <output-trip-file value=".\data\routes\night.rou.xml"/>
    <prefix value="night_"/>
    <end value="25200.0"/>
    <period value="2.5"/>
</configuration>
-->

<routes xmlns:xsi="http://www.w3.org/2001/XMLSchema-instance" xsi:noNamespaceSchemaLocation="http://sumo.dlr.de/xsd/routes_file.xsd">
    <trip id="night_0" depart="0.00" from="-53103899" to="-51095934#5"/>
    <trip id="night_1" depart="2.50" from="50831915#9" to="49830666#7"/>
    <trip id="night_2" depart="5.00" from="580760138#2" to="-25684551#8"/>
    <trip id="night_3" depart="7.50" from="-88247764#4" to="-25486114#0"/>
    <trip id="night_4" depart="10.00" from="-51095934#12" to="192987238#4"/>
    <trip id="night_5" depart="12.50" from="-186475564#1" to="-51095934#0"/>
    <trip id="night_6" depart="15.00" from="477271454" to="25684551#1"/>
    <trip id="night_7" depart="17.50" from="-51095934#13" to="277523407#0"/>
    <trip id="night_8" depart="20.00" from="52152425#1" to="-1124346622#0"/>
    <trip id="night_9" depart="22.50" from="51543398#1" to="50831914#1"/>
    <trip id="night_10" depart="25.00" from="-54985279#5" to="-50831915#2"/>
    <trip id="night_11" depart="27.50" from="67549357#1" to="-580760138#5"/>
    <trip id="night_12" depart="30.00" from="-25684551#9" to="-25684557#2"/>
    <trip id="night_13" depart="32.50" from="54985260#14" to="37177801#10"/>
    <trip id="night_14" depart="35.00" from="52152425#0" to="50831915#9"/>
    <trip id="night_15" depart="37.50" from="25504350#3" to="88247764#0"/>
    <trip id="night_16" depart="40.00" from="-622102031#1" to="25684551#3"/>
    <trip id="night_17" depart="42.50" from="53369130#2" to="37177801#2"/>
    <trip id="night_18" depart="45.00" from="54985260#6" to="25684557#3"/>
    <trip id="night_19" depart="47.50" from="50449361#6" to="-25504350#1"/>
    <trip id="night_20" depart="50.00" from="-51095934#2" to="-54985260#2"/>
    <trip id="night_21" depart="52.50" from="-25684551#4" to="-51095934#9"/>
    <trip id="night_22" depart="55.00" from="-25684557#3" to="-54985260#12"/>
    <trip id="night_23" depart="57.50" from="-622102030#2" to="-51095934#13"/>
    <trip id="night_24" depart="60.00" from="-53103882#1" to="622102031#4"/>
    <trip id="night_25" depart="62.50" from="37177801#9" to="37177801#12"/>
    <trip id="night_26" depart="65.00" from="-50831915#6" to="50831915#9"/>
    <trip id="night_27" depart="67.50" from="-50831915#3" to="-622102031#6"/>
    <trip id="night_28" depart="70.00" from="88247764#5" to="477271454"/>
    <trip id="night_29" depart="72.50" from="25684551#10" to="50449361#3"/>
    <trip id="night_30" depart="75.00" from="54985260#13" to="51095934#15"/>
    <trip id="night_31" depart="77.50" from="-51095934#2" to="-25486115#0"/>
    <trip id="night_32" depart="80.00" from="-54985260#6" to="-54985260#0"/>
    <trip id="night_33" depart="82.50" from="-51095934#1" to="622102031#6"/>
    <trip id="night_34" depart="85.00" from="54985279#2" to="-54985279#2"/>
    <trip id="night_35" depart="87.50" from="477271462#1" to="-88247764#0"/>
    <trip id="night_36" depart="90.00" from="620932850#3" to="186475564#2"/>
    <trip id="night_37" depart="92.50" from="-53103882#0" to="-52152425#1"/>
    <trip id="night_38" depart="95.00" from="25684551#3" to="-53369130#1"/>
    <trip id="night_39" depart="97.50" from="25684557#2" to="580760138#3"/>
    <trip id="night_40" depart="100.00" from="-64973297#1" to="-51095934#3"/>
    <trip id="night_41" depart="102.50" from="88247764#9" to="25486114#1"/>
    <trip id="night_42" depart="105.00" from="-25684551#9" to="-25504350#2"/>
    <trip id="night_43" depart="107.50" from="-477271454" to="37177801#5"/>
    <trip id="night_44" depart="110.00" from="51095934#7" to="-88247764#9"/>
    <trip id="night_45" depart="112.50" from="-25504350#6" to="-622102031#7"/>
    <trip id="night_46" depart="115.00" from="88247764#8" to="25504350#4"/>
    <trip id="night_47" depart="117.50" from="829563410#2" to="54985260#4"/>
    <trip id="night_48" depart="120.00" from="-1124346622#2" to="50831915#5"/>
    <trip id="night_49" depart="122.50" from="49830666#5" to="25504350#7"/>
    <trip id="night_50" depart="125.00" from="-53103882#1" to="477271462#0"/>
    <trip id="night_51" depart="127.50" from="-477271462#0" to="1124346622#2"/>
    <trip id="night_52" depart="130.00" from="130503625#2" to="64973297#1"/>
    <trip id="night_53" depart="132.50" from="54985279#1" to="-53369130#1"/>
    <trip id="night_54" depart="135.00" from="192981425#2" to="-50831916#1"/>
    <trip id="night_55" depart="137.50" from="620932850#3" to="54985260#7"/>
    <trip id="night_56" depart="140.00" from="-54985260#14" to="477271454"/>
    <trip id="night_57" depart="142.50" from="277523407#2" to="-50831915#10"/>
    <trip id="night_58" depart="145.00" from="51095934#1" to="25684440#0"/>
    <trip id="night_59" depart="147.50" from="51095934#2" to="25504350#5"/>
    <trip id="night_60" depart="150.00" from="-1075767203#0" to="-580760138#0"/>
    <trip id="night_61" depart="152.50" from="-130503625#2" to="622102031#1"/>
    <trip id="night_62" depart="155.00" from="54985279#3" to="53369130#2"/>
    <trip id="night_63" depart="157.50" from="-54985260#3" to="-25504350#6"/>
    <trip id="night_64" depart="160.00" from="54985279#2" to="626880271#0"/>
    <trip id="night_65" depart="162.50" from="-25684551#7" to="192981425#0"/>
    <trip id="night_66" depart="165.00" from="-25684551#1" to="51095934#1"/>
    <trip id="night_67" depart="167.50" from="51095934#10" to="-50449361#1"/>
    <trip id="night_68" depart="170.00" from="192981424#0" to="25684551#2"/>
    <trip id="night_69" depart="172.50" from="-53103882#0" to="54985260#8"/>
    <trip id="night_70" depart="175.00" from="-88247764#4" to="-51095934#13"/>
    <trip id="night_71" depart="177.50" from="25504350#4" to="50831915#9"/>
    <trip id="night_72" depart="180.00" from="-51095930#0" to="-54985279#1"/>
    <trip id="night_73" depart="182.50" from="88247764#8" to="477271462#3"/>
    <trip id="night_74" depart="185.00" from="1075767203#0" to="25504350#0"/>
    <trip id="night_75" depart="187.50" from="-477271462#3" to="-51095934#5"/>
    <trip id="night_76" depart="190.00" from="-51095934#3" to="-51095934#4"/>
    <trip id="night_77" depart="192.50" from="-25684551#10" to="37177801#7"/>
    <trip id="night_78" depart="195.00" from="-51095934#2" to="580760138#6"/>
    <trip id="night_79" depart="197.50" from="54985260#5" to="-25684551#2"/>
    <trip id="night_80" depart="200.00" from="-51095934#6" to="49830666#4"/>
    <trip id="night_81" depart="202.50" from="-51095934#10" to="-50449361#3"/>
    <trip id="night_82" depart="205.00" from="622102031#4" to="25684557#0"/>
    <trip id="night_83" depart="207.50" from="52152425#0" to="-51095930#0"/>
    <trip id="night_84" depart="210.00" from="-25684557#1" to="1124346622#0"/>
    <trip id="night_85" depart="212.50" from="-88247764#4" to="192981424#0"/>
    <trip id="night_86" depart="215.00" from="50831915#6" to="49830666#6"/>
    <trip id="night_87" depart="217.50" from="88247764#3" to="-25684557#3"/>
    <trip id="night_88" depart="220.00" from="-829563410#0" to="-580760138#6"/>
    <trip id="night_89" depart="222.50" from="54985260#6" to="-52152425#2"/>
    <trip id="night_90" depart="225.00" from="-88247764#4" to="-54985260#12"/>
    <trip id="night_91" depart="227.50" from="-51510530" to="622102030#3"/>
    <trip id="night_92" depart="230.00" from="1124346622#0" to="54985260#4"/>
    <trip id="night_93" depart="232.50" from="25684487" to="-25504350#3"/>
    <trip id="night_94" depart="235.00" from="88247764#9" to="54985260#1"/>
    <trip id="night_95" depart="237.50" from="829563410#2" to="622102031#0"/>
    <trip id="night_96" depart="240.00" from="54985260#15" to="-50831915#6"/>
    <trip id="night_97" depart="242.50" from="192981424#4" to="-51095934#14"/>
    <trip id="night_98" depart="245.00" from="-829563410#0" to="-25504350#6"/>
    <trip id="night_99" depart="247.50" from="-622102031#1" to="88247764#4"/>
    <trip id="night_100" depart="250.00" from="-53103882#0" to="51095934#4"/>
    <trip id="night_101" depart="252.50" from="170083666#0" to="-88247764#9"/>
    <trip id="night_102" depart="255.00" from="67549357#1" to="88247764#8"/>
    <trip id="night_103" depart="257.50" from="25684551#10" to="50831915#5"/>
    <trip id="night_104" depart="260.00" from="-50831915#1" to="-54985260#5"/>
    <trip id="night_105" depart="262.50" from="829563410#1" to="25684557#4"/>
    <trip id="night_106" depart="265.00" from="25504350#5" to="50831919#1"/>
    <trip id="night_107" depart="267.50" from="192987238#0" to="54985260#16"/>
    <trip id="night_108" depart="270.00" from="-50831915#10" to="744871126#0"/>
    <trip id="night_109" depart="272.50" from="-25684551#5" to="-50831918#0"/>
    <trip id="night_110" depart="275.00" from="262767663#0" to="49830666#7"/>
    <trip id="night_111" depart="277.50" from="-51095934#5" to="-477271462#4"/>
    <trip id="night_112" depart="280.00" from="580760138#1" to="-52152425#1"/>
    <trip id="night_113" depart="282.50" from="262767663#0" to="37177801#2"/>
    <trip id="night_114" depart="285.00" from="-88247764#3" to="25684557#5"/>
    <trip id="night_115" depart="287.50" from="25486115#2" to="622102031#3"/>
    <trip id="night_116" depart="290.00" from="-51095930#2" to="50831915#4"/>
    <trip id="night_117" depart="292.50" from="-51095934#6" to="-88247764#0"/>
    <trip id="night_118" depart="295.00" from="49830666#1" to="-54985260#7"/>
    <trip id="night_119" depart="297.50" from="-54985260#6" to="51095930#0"/>
    <trip id="night_120" depart="300.00" from="-25684551#2" to="186475564#2"/>
    <trip id="night_121" depart="302.50" from="88247764#9" to="88247764#8"/>
    <trip id="night_122" depart="305.00" from="-25684551#2" to="-51095934#14"/>
    <trip id="night_123" depart="307.50" from="-53103882#0" to="622102031#3"/>
    <trip id="night_124" depart="310.00" from="54985279#3" to="54985279#1"/>
    <trip id="night_125" depart="312.50" from="-622102030#2" to="-50831915#3"/>
    <trip id="night_126" depart="315.00" from="54985260#1" to="50831915#1"/>
    <trip id="night_127" depart="317.50" from="477271462#1" to="-1124346622#1"/>
    <trip id="night_128" depart="320.00" from="53103893#0" to="-54985260#6"/>
    <trip id="night_129" depart="322.50" from="477271462#4" to="622102031#5"/>
    <trip id="night_130" depart="325.00" from="-50449361#3" to="-477271462#2"/>
    <trip id="night_131" depart="327.50" from="-25684557#5" to="25684551#4"/>
    <trip id="night_132" depart="330.00" from="-53103893#1" to="37177801#11"/>
    <trip id="night_133" depart="332.50" from="50831915#10" to="-51095934#10"/>
    <trip id="night_134" depart="335.00" from="192981424#6" to="580760138#6"/>
    <trip id="night_135" depart="337.50" from="54985260#14" to="-25684557#0"/>
    <trip id="night_136" depart="340.00" from="-88247764#4" to="-54985260#12"/>
    <trip id="night_137" depart="342.50" from="-1075767203#1" to="51095934#13"/>
    <trip id="night_138" depart="345.00" from="50831916#0" to="25684551#3"/>
    <trip id="night_139" depart="347.50" from="-88247764#6" to="-1124346622#1"/>
    <trip id="night_140" depart="350.00" from="-25684551#3" to="54985279#2"/>
    <trip id="night_141" depart="352.50" from="580760138#6" to="25684551#10"/>
    <trip id="night_142" depart="355.00" from="54985260#1" to="25684557#5"/>
    <trip id="night_143" depart="357.50" from="-50831914#1" to="-50449361#1"/>
    <trip id="night_144" depart="360.00" from="-54985260#3" to="580760138#3"/>
    <trip id="night_145" depart="362.50" from="51095934#9" to="54985260#4"/>
    <trip id="night_146" depart="365.00" from="580760138#4" to="-51095934#13"/>
    <trip id="night_147" depart="367.50" from="-51510530" to="-25684557#4"/>
    <trip id="night_148" depart="370.00" from="51095934#2" to="54985279#3"/>
    <trip id="night_149" depart="372.50" from="-829563410#2" to="37177801#3"/>
    <trip id="night_150" depart="375.00" from="-50831915#1" to="622102031#1"/>
    <trip id="night_151" depart="377.50" from="54985260#7" to="88247764#1"/>
    <trip id="night_152" depart="380.00" from="52152425#1" to="54985279#2"/>
    <trip id="night_153" depart="382.50" from="-186475564#0" to="50831917"/>
    <trip id="night_154" depart="385.00" from="-54985279#2" to="622102031#2"/>
    <trip id="night_155" depart="387.50" from="51543398#0" to="54985260#5"/>
    <trip id="night_156" depart="390.00" from="52152425#1" to="-54985260#0"/>
    <trip id="night_157" depart="392.50" from="51095934#5" to="-477271454"/>
    <trip id="night_158" depart="395.00" from="54985279#0" to="54985260#3"/>
    <trip id="night_159" depart="397.50" from="-51095934#14" to="53103882#1"/>
    <trip id="night_160" depart="400.00" from="170083666#2" to="-54985260#9"/>
    <trip id="night_161" depart="402.50" from="51095934#8" to="-51095934#7"/>
    <trip id="night_162" depart="405.00" from="-186475564#0" to="-51095930#1"/>
    <trip id="night_163" depart="407.50" from="-54985279#1" to="54985260#5"/>
    <trip id="night_164" depart="410.00" from="829563410#1" to="-54985260#13"/>
    <trip id="night_165" depart="412.50" from="88247764#2" to="25504350#7"/>
    <trip id="night_166" depart="415.00" from="622102031#5" to="-477271462#2"/>
    <trip id="night_167" depart="417.50" from="829563410#2" to="-50831916#1"/>
    <trip id="night_168" depart="420.00" from="-25684557#5" to="1124346622#2"/>
    <trip id="night_169" depart="422.50" from="50831915#5" to="-54985279#2"/>
    <trip id="night_170" depart="425.00" from="277523407#1" to="25486114#1"/>
    <trip id="night_171" depart="427.50" from="-622102031#4" to="25684557#3"/>
    <trip id="night_172" depart="430.00" from="-51510531#1" to="50831915#11"/>
    <trip id="night_173" depart="432.50" from="-1075767203#0" to="622102031#0"/>
    <trip id="night_174" depart="435.00" from="25504350#4" to="50831915#5"/>
    <trip id="night_175" depart="437.50" from="50831916#1" to="49830666#5"/>
    <trip id="night_176" depart="440.00" from="-620932850#2" to="-25684551#2"/>
    <trip id="night_177" depart="442.50" from="477271462#5" to="-580760138#2"/>
    <trip id="night_178" depart="445.00" from="-54985260#5" to="54985260#14"/>
    <trip id="night_179" depart="447.50" from="50831915#2" to="-54985260#7"/>
    <trip id="night_180" depart="450.00" from="-54985260#3" to="-88247764#4"/>
    <trip id="night_181" depart="452.50" from="-829563410#0" to="-54985260#5"/>
    <trip id="night_182" depart="455.00" from="-50449361#1" to="-88247764#8"/>
    <trip id="night_183" depart="457.50" from="622102031#5" to="50449361#1"/>
    <trip id="night_184" depart="460.00" from="580760138#6" to="37177801#15"/>
    <trip id="night_185" depart="462.50" from="-54985260#15" to="25684551#2"/>
    <trip id="night_186" depart="465.00" from="-1075767203#0" to="-54985260#2"/>
    <trip id="night_187" depart="467.50" from="-88247764#7" to="25684557#4"/>
    <trip id="night_188" depart="470.00" from="477271462#1" to="186475564#4"/>
    <trip id="night_189" depart="472.50" from="1124346622#0" to="-51095934#14"/>
    <trip id="night_190" depart="475.00" from="192981424#0" to="580760138#4"/>
    <trip id="night_191" depart="477.50" from="51095934#9" to="-50831915#7"/>
    <trip id="night_192" depart="480.00" from="-25684551#6" to="25486115#2"/>
    <trip id="night_193" depart="482.50" from="53103893#0" to="51095930#0"/>
    <trip id="night_194" depart="485.00" from="49830666#2" to="-51095934#5"/>
    <trip id="night_195" depart="487.50" from="-51095930#0" to="-186475564#2"/>
    <trip id="night_196" depart="490.00" from="-51095934#8" to="192981424#3"/>
    <trip id="night_197" depart="492.50" from="54985260#15" to="-25684551#3"/>
    <trip id="night_198" depart="495.00" from="-88247764#10" to="37177801#6"/>
    <trip id="night_199" depart="497.50" from="-50831919#0" to="50831914#0"/>
    <trip id="night_200" depart="500.00" from="192981425#0" to="-52152425#0"/>
    <trip id="night_201" depart="502.50" from="477271462#1" to="-1124346622#0"/>
    <trip id="night_202" depart="505.00" from="50831919#0" to="51095934#13"/>
    <trip id="night_203" depart="507.50" from="-25684557#5" to="1075767203#0"/>
    <trip id="night_204" depart="510.00" from="25486115#0" to="-25504350#3"/>
    <trip id="night_205" depart="512.50" from="-51510530" to="54985260#14"/>
    <trip id="night_206" depart="515.00" from="170083666#0" to="51510531#0"/>
    <trip id="night_207" depart="517.50" from="49830666#0" to="88247764#5"/>
    <trip id="night_208" depart="520.00" from="262767663#0" to="626880271#1"/>
    <trip id="night_209" depart="522.50" from="580760138#1" to="37177801#14"/>
    <trip id="night_210" depart="525.00" from="50831915#2" to="192987238#4"/>
    <trip id="night_211" depart="527.50" from="54985260#0" to="25684551#2"/>
    <trip id="night_212" depart="530.00" from="580760138#4" to="50831918#1"/>
    <trip id="night_213" depart="532.50" from="192981424#0" to="-53369130#0"/>
    <trip id="night_214" depart="535.00" from="-51095934#9" to="37177801#9"/>
    <trip id="night_215" depart="537.50" from="51095934#10" to="25504350#1"/>
    <trip id="night_216" depart="540.00" from="-25684551#3" to="-54985260#15"/>
    <trip id="night_217" depart="542.50" from="-53103893#1" to="-54985279#4"/>
    <trip id="night_218" depart="545.00" from="25504350#5" to="-50449361#5"/>
    <trip id="night_219" depart="547.50" from="-51095934#3" to="50449361#7"/>
    <trip id="night_220" depart="550.00" from="50831914#0" to="-25684551#0"/>
    <trip id="night_221" depart="552.50" from="-829563410#2" to="25684440#1"/>
    <trip id="night_222" depart="555.00" from="-88247764#10" to="-51095934#12"/>
    <trip id="night_223" depart="557.50" from="-88247764#3" to="580760138#6"/>
    <trip id="night_224" depart="560.00" from="25684557#2" to="50831914#0"/>
    <trip id="night_225" depart="562.50" from="54985260#4" to="51095934#11"/>
    <trip id="night_226" depart="565.00" from="-622102031#2" to="-1124346622#0"/>
    <trip id="night_227" depart="567.50" from="-580760138#5" to="51095930#1"/>
    <trip id="night_228" depart="570.00" from="54985260#3" to="64973297#0"/>
    <trip id="night_229" depart="572.50" from="-88247764#3" to="50831919#1"/>
    <trip id="night_230" depart="575.00" from="-51095934#13" to="-51095934#3"/>
    <trip id="night_231" depart="577.50" from="-88247764#9" to="-25486114#0"/>
    <trip id="night_232" depart="580.00" from="-54985279#4" to="50449361#1"/>
    <trip id="night_233" depart="582.50" from="-829563410#1" to="-50831915#5"/>
    <trip id="night_234" depart="585.00" from="186475564#1" to="-50449361#1"/>
    <trip id="night_235" depart="587.50" from="-622102031#7" to="25684551#8"/>
    <trip id="night_236" depart="590.00" from="-186475564#1" to="477271462#0"/>
    <trip id="night_237" depart="592.50" from="-50449361#4" to="186475564#3"/>
    <trip id="night_238" depart="595.00" from="-25504350#1" to="-622102031#6"/>
    <trip id="night_239" depart="597.50" from="-51095934#1" to="-580760138#1"/>
    <trip id="night_240" depart="600.00" from="51095934#0" to="-622102031#6"/>
    <trip id="night_241" depart="602.50" from="51095930#0" to="53369130#2"/>
    <trip id="night_242" depart="605.00" from="-51510531#0" to="-25684551#6"/>
    <trip id="night_243" depart="607.50" from="-130503625#2" to="25684440#0"/>
    <trip id="night_244" depart="610.00" from="88247764#9" to="-620932850#3"/>
    <trip id="night_245" depart="612.50" from="477271454" to="51095934#3"/>
    <trip id="night_246" depart="615.00" from="477271462#0" to="51095930#1"/>
    <trip id="night_247" depart="617.50" from="64973297#0" to="-51095934#1"/>
    <trip id="night_248" depart="620.00" from="-130503625#2" to="-50831915#1"/>
    <trip id="night_249" depart="622.50" from="-477271462#5" to="49830666#5"/>
    <trip id="night_250" depart="625.00" from="25684551#4" to="-51095934#3"/>
    <trip id="night_251" depart="627.50" from="50449361#4" to="51095934#11"/>
    <trip id="night_252" depart="630.00" from="-50831915#4" to="37177801#12"/>
    <trip id="night_253" depart="632.50" from="50831918#0" to="-477271462#2"/>
    <trip id="night_254" depart="635.00" from="53103893#1" to="829563410#0"/>
    <trip id="night_255" depart="637.50" from="-25684557#5" to="-186475564#2"/>
    <trip id="night_256" depart="640.00" from="-54985260#4" to="50449361#1"/>
    <trip id="night_257" depart="642.50" from="67549357#1" to="-88247764#0"/>
    <trip id="night_258" depart="645.00" from="50831915#1" to="-25684551#4"/>
    <trip id="night_259" depart="647.50" from="50449361#1" to="37177801#5"/>
    <trip id="night_260" depart="650.00" from="-25684557#3" to="51095934#13"/>
    <trip id="night_261" depart="652.50" from="54985260#2" to="37177801#1"/>
    <trip id="night_262" depart="655.00" from="-477271462#3" to="88247764#3"/>
    <trip id="night_263" depart="657.50" from="51095934#3" to="-620932850#2"/>
    <trip id="night_264" depart="660.00" from="-88247764#6" to="-622102031#3"/>
    <trip id="night_265" depart="662.50" from="192987238#1" to="-620932850#0"/>
    <trip id="night_266" depart="665.00" from="54985260#15" to="53103893#1"/>
    <trip id="night_267" depart="667.50" from="-25684557#4" to="744871126#0"/>
    <trip id="night_268" depart="670.00" from="50831914#0" to="1124346622#2"/>
    <trip id="night_269" depart="672.50" from="50831915#7" to="829563410#0"/>
    <trip id="night_270" depart="675.00" from="-53103893#0" to="51543398#1"/>
    <trip id="night_271" depart="677.50" from="25504350#4" to="192981424#7"/>
    <trip id="night_272" depart="680.00" from="-88247764#9" to="50831915#9"/>
    <trip id="night_273" depart="682.50" from="-53103882#1" to="54985260#15"/>
    <trip id="night_274" depart="685.00" from="54985260#0" to="-25684551#8"/>
    <trip id="night_275" depart="687.50" from="54985279#4" to="-52152425#0"/>
    <trip id="night_276" depart="690.00" from="186475564#0" to="37177801#13"/>
    <trip id="night_277" depart="692.50" from="-622102031#1" to="-25486114#0"/>
    <trip id="night_278" depart="695.00" from="54985260#2" to="-50831917"/>
    <trip id="night_279" depart="697.50" from="-51095934#10" to="51095934#9"/>
    <trip id="night_280" depart="700.00" from="-54985279#5" to="54985279#1"/>
    <trip id="night_281" depart="702.50" from="50449361#5" to="-54985260#11"/>
    <trip id="night_282" depart="705.00" from="-1124346622#1" to="626880271#0"/>
    <trip id="night_283" depart="707.50" from="-25684551#7" to="50831915#5"/>
    <trip id="night_284" depart="710.00" from="192981424#6" to="51095934#0"/>
    <trip id="night_285" depart="712.50" from="50449361#1" to="477271462#1"/>
    <trip id="night_286" depart="715.00" from="192981424#6" to="51095934#7"/>
    <trip id="night_287" depart="717.50" from="-25684557#0" to="-51095934#4"/>
    <trip id="night_288" depart="720.00" from="50449361#1" to="-54985260#9"/>
    <trip id="night_289" depart="722.50" from="25684557#1" to="192981424#3"/>
    <trip id="night_290" depart="725.00" from="25504350#1" to="1075767203#0"/>
    <trip id="night_291" depart="727.50" from="50831917" to="-580760138#3"/>
    <trip id="night_292" depart="730.00" from="50449361#6" to="-54985260#1"/>
    <trip id="night_293" depart="732.50" from="-51510531#0" to="-477271462#4"/>
    <trip id="night_294" depart="735.00" from="-50831918#1" to="-477271462#4"/>
    <trip id="night_295" depart="737.50" from="25504350#3" to="51095934#1"/>
    <trip id="night_296" depart="740.00" from="-50831916#1" to="-51095934#2"/>
    <trip id="night_297" depart="742.50" from="192981424#4" to="50831915#7"/>
    <trip id="night_298" depart="745.00" from="88247764#1" to="25504350#3"/>
    <trip id="night_299" depart="747.50" from="-54985260#0" to="-25684557#3"/>
    <trip id="night_300" depart="750.00" from="-50831919#0" to="-51095934#7"/>
    <trip id="night_301" depart="752.50" from="-50831915#9" to="-130503625#1"/>
    <trip id="night_302" depart="755.00" from="25504350#2" to="-54985260#11"/>
    <trip id="night_303" depart="757.50" from="88247764#1" to="25684551#4"/>
    <trip id="night_304" depart="760.00" from="50449361#3" to="-50449361#0"/>
    <trip id="night_305" depart="762.50" from="54985260#9" to="192981425#1"/>
    <trip id="night_306" depart="765.00" from="54985279#0" to="25684557#2"/>
    <trip id="night_307" depart="767.50" from="186475564#2" to="130503625#1"/>
    <trip id="night_308" depart="770.00" from="-50831916#1" to="-25504350#3"/>
    <trip id="night_309" depart="772.50" from="622102031#6" to="192981424#4"/>
    <trip id="night_310" depart="775.00" from="53369130#0" to="-88247764#10"/>
    <trip id="night_311" depart="777.50" from="-25684551#2" to="37177801#6"/>
    <trip id="night_312" depart="780.00" from="-25504350#2" to="-50831915#0"/>
    <trip id="night_313" depart="782.50" from="25684551#3" to="-54985260#8"/>
    <trip id="night_314" depart="785.00" from="88247764#7" to="-477271462#3"/>
    <trip id="night_315" depart="787.50" from="51095934#1" to="37177801#11"/>
    <trip id="night_316" depart="790.00" from="51095934#7" to="-51095934#6"/>
    <trip id="night_317" depart="792.50" from="25486115#2" to="170083666#2"/>
    <trip id="night_318" depart="795.00" from="1124346622#0" to="54985260#3"/>
    <trip id="night_319" depart="797.50" from="88247764#6" to="-54985260#9"/>
    <trip id="night_320" depart="800.00" from="37177801#12" to="37177801#12"/>
    <trip id="night_321" depart="802.50" from="50831916#0" to="626880271#0"/>
    <trip id="night_322" depart="805.00" from="-51095934#0" to="-51095934#13"/>
    <trip id="night_323" depart="807.50" from="477271462#3" to="-50831915#2"/>
    <trip id="night_324" depart="810.00" from="-50831915#7" to="-25684551#4"/>
    <trip id="night_325" depart="812.50" from="-1075767203#1" to="170083666#2"/>
    <trip id="night_326" depart="815.00" from="25684557#5" to="-54985260#3"/>
    <trip id="night_327" depart="817.50" from="-51095934#3" to="50831915#10"/>
    <trip id="night_328" depart="820.00" from="50449361#6" to="186475564#0"/>
    <trip id="night_329" depart="822.50" from="50449361#0" to="622102030#3"/>
    <trip id="night_330" depart="825.00" from="51095934#5" to="37177801#4"/>
    <trip id="night_331" depart="827.50" from="477271462#3" to="622102031#3"/>
    <trip id="night_332" depart="830.00" from="-88247764#5" to="25684551#1"/>
    <trip id="night_333" depart="832.50" from="53369130#1" to="-25684551#2"/>
    <trip id="night_334" depart="835.00" from="-50831915#4" to="-54985279#0"/>
    <trip id="night_335" depart="837.50" from="50831918#0" to="25684557#0"/>
    <trip id="night_336" depart="840.00" from="-54985260#10" to="-50449361#0"/>
    <trip id="night_337" depart="842.50" from="50449361#0" to="50831914#1"/>
    <trip id="night_338" depart="845.00" from="622102031#6" to="192987238#2"/>
    <trip id="night_339" depart="847.50" from="192981425#0" to="-25684551#6"/>
    <trip id="night_340" depart="850.00" from="-25486114#1" to="1124346622#1"/>
    <trip id="night_341" depart="852.50" from="-54985260#8" to="-52152425#2"/>
    <trip id="night_342" depart="855.00" from="-25684551#9" to="744871126#1"/>
    <trip id="night_343" depart="857.50" from="54985260#10" to="25684557#2"/>
    <trip id="night_344" depart="860.00" from="64973297#0" to="88247764#9"/>
    <trip id="night_345" depart="862.50" from="49830666#2" to="-54985260#1"/>
    <trip id="night_346" depart="865.00" from="-25486114#1" to="51095930#2"/>
    <trip id="night_347" depart="867.50" from="622102030#0" to="-50831917"/>
    <trip id="night_348" depart="870.00" from="25684557#2" to="37177801#8"/>
    <trip id="night_349" depart="872.50" from="192981424#7" to="-25684557#0"/>
    <trip id="night_350" depart="875.00" from="-580760138#3" to="-580760138#3"/>
    <trip id="night_351" depart="877.50" from="49830666#1" to="54985260#2"/>
    <trip id="night_352" depart="880.00" from="-54985279#1" to="50449361#7"/>
    <trip id="night_353" depart="882.50" from="-54985260#10" to="622102031#7"/>
    <trip id="night_354" depart="885.00" from="52152425#2" to="25684551#2"/>
    <trip id="night_355" depart="887.50" from="170083666#0" to="-54985279#2"/>
    <trip id="night_356" depart="890.00" from="-54985260#9" to="829563410#2"/>
    <trip id="night_357" depart="892.50" from="-829563410#1" to="25486115#2"/>
    <trip id="night_358" depart="895.00" from="88247764#5" to="49830666#0"/>
    <trip id="night_359" depart="897.50" from="25504350#5" to="-88247764#5"/>
    <trip id="night_360" depart="900.00" from="-50831917" to="-622102031#0"/>
    <trip id="night_361" depart="902.50" from="51095930#1" to="37177801#5"/>
    <trip id="night_362" depart="905.00" from="51095934#0" to="-51095934#10"/>
    <trip id="night_363" depart="907.50" from="25684487" to="622102031#1"/>
    <trip id="night_364" depart="910.00" from="1075767203#0" to="50831914#1"/>
    <trip id="night_365" depart="912.50" from="-477271462#3" to="88247764#0"/>
    <trip id="night_366" depart="915.00" from="277523407#2" to="-51543398#0"/>
    <trip id="night_367" depart="917.50" from="-50831915#11" to="25684551#3"/>
    <trip id="night_368" depart="920.00" from="25684551#0" to="-25684557#1"/>
    <trip id="night_369" depart="922.50" from="88247764#7" to="620932850#2"/>
    <trip id="night_370" depart="925.00" from="170083666#2" to="-477271462#3"/>
    <trip id="night_371" depart="927.50" from="54985260#1" to="192987238#1"/>
    <trip id="night_372" depart="930.00" from="50831915#10" to="25486114#0"/>
    <trip id="night_373" depart="932.50" from="-53103893#1" to="54985260#1"/>
    <trip id="night_374" depart="935.00" from="88247764#2" to="-52152425#0"/>
    <trip id="night_375" depart="937.50" from="25684551#0" to="-64973297#0"/>
    <trip id="night_376" depart="940.00" from="622102030#2" to="25486114#0"/>