<?xml version="1.0" encoding="UTF-8"?>

<!-- generated on 2026-02-17 16:15:52.434550 by Eclipse SUMO randomTrips.py v1_26_0+0000-fa7df22d7f1
<configuration>
    <net-file value=".\data\networks\city_000.net.xml"/>
    <output-trip-file value=".\data\routes\routes_000.rou.xml"/>
    <period value="1.0"/>
    <flows value="1000"/>
</configuration>
-->

<routes xmlns:xsi="http://www.w3.org/2001/XMLSchema-instance" xsi:noNamespaceSchemaLocation="http://sumo.dlr.de/xsd/routes_file.xsd">
    <flow id="0" begin="0" end="3600" period="1000" from="25684329#10" to="-1296319312#4"/>
    <flow id="1" begin="0" end="3600" period="1000" from="-50831909#2" to="-38059019#0"/>
    <flow id="2" begin="0" end="3600" period="1000" from="377148614#1" to="25684523#30"/>
    <flow id="3" begin="0" end="3600" period="1000" from="53369157#1" to="-192981423#3"/>
    <flow id="4" begin="0" end="3600" period="1000" from="-620932850#3" to="-130503625#4"/>
    <flow id="5" begin="0" end="3600" period="1000" from="-38059007#1" to="132650516#1"/>
    <flow id="6" begin="0" end="3600" period="1000" from="-130503625#0" to="-25684557#0"/>
    <flow id="7" begin="0" end="3600" period="1000" from="25684329#23" to="182810919"/>
    <flow id="8" begin="0" end="3600" period="1000" from="-38059010#1" to="25486108#1"/>
    <flow id="9" begin="0" end="3600" period="1000" from="50831915#9" to="-106756209#0"/>
    <flow id="10" begin="0" end="3600" period="1000" from="50831915#5" to="25684557#4"/>
    <flow id="11" begin="0" end="3600" period="1000" from="-53103863#0" to="-25684380#2"/>
    <flow id="12" begin="0" end="3600" period="1000" from="62233730#1" to="-53103864#3"/>
    <flow id="13" begin="0" end="3600" period="1000" from="-192981423#4" to="-25486108#4"/>
    <flow id="14" begin="0" end="3600" period="1000" from="51510530#5" to="25486528#4"/>
    <flow id="15" begin="0" end="3600" period="1000" from="50831915#6" to="38059007#1"/>
    <flow id="16" begin="0" end="3600" period="1000" from="170083666#4" to="689893626"/>
    <flow id="17" begin="0" end="3600" period="1000" from="-54053309" to="185029128#1"/>
    <flow id="18" begin="0" end="3600" period="1000" from="51095934#12" to="25504350#3"/>
    <flow id="19" begin="0" end="3600" period="1000" from="53103856#2" to="192981425#1"/>
    <flow id="20" begin="0" end="3600" period="1000" from="25684557#0" to="-1408120319#3"/>
    <flow id="21" begin="0" end="3600" period="1000" from="-38059019#1" to="-50831945"/>
    <flow id="22" begin="0" end="3600" period="1000" from="-25486108#4" to="-50831916#0"/>
    <flow id="23" begin="0" end="3600" period="1000" from="25684238#5" to="-53369157#5"/>
    <flow id="24" begin="0" end="3600" period="1000" from="-53369157#10" to="-377148614#0"/>
    <flow id="25" begin="0" end="3600" period="1000" from="-50449361#3" to="580760138#6"/>
    <flow id="26" begin="0" end="3600" period="1000" from="25684329#20" to="25504325#2"/>
    <flow id="27" begin="0" end="3600" period="1000" from="-25684523#14" to="38059007#0"/>
    <flow id="28" begin="0" end="3600" period="1000" from="-25684487#1" to="-54985232#1"/>
    <flow id="29" begin="0" end="3600" period="1000" from="88247764#1" to="25684329#20"/>
    <flow id="30" begin="0" end="3600" period="1000" from="182857369#1" to="25684551#11"/>
    <flow id="31" begin="0" end="3600" period="1000" from="51095934#8" to="49830666#3"/>
    <flow id="32" begin="0" end="3600" period="1000" from="-38059019#2" to="-1312246206#1"/>
    <flow id="33" begin="0" end="3600" period="1000" from="-51095934#23" to="-50831909#1"/>
    <flow id="34" begin="0" end="3600" period="1000" from="-322189562#0" to="62109629#3"/>
    <flow id="35" begin="0" end="3600" period="1000" from="53103882#2" to="-51510530#3"/>
    <flow id="36" begin="0" end="3600" period="1000" from="25684329#7" to="-54985260#4"/>
    <flow id="37" begin="0" end="3600" period="1000" from="-50449361#12" to="-49180594#0"/>
    <flow id="38" begin="0" end="3600" period="1000" from="185029128#2" to="-50449361#7"/>
    <flow id="39" begin="0" end="3600" period="1000" from="192981424#7" to="54357872#1"/>
    <flow id="40" begin="0" end="3600" period="1000" from="-54985260#2" to="-38059017#0"/>
    <flow id="41" begin="0" end="3600" period="1000" from="-192981423#2" to="-1411876855"/>
    <flow id="42" begin="0" end="3600" period="1000" from="-25486505#2" to="25684238#5"/>
    <flow id="43" begin="0" end="3600" period="1000" from="50449361#4" to="-622102031#4"/>
    <flow id="44" begin="0" end="3600" period="1000" from="-176049578#2" to="-54985260#10"/>
    <flow id="45" begin="0" end="3600" period="1000" from="88247764#9" to="174648257#1"/>
    <flow id="46" begin="0" end="3600" period="1000" from="67549357#1" to="53103864#2"/>
    <flow id="47" begin="0" end="3600" period="1000" from="-1124346622#1" to="37177801#4"/>
    <flow id="48" begin="0" end="3600" period="1000" from="25684523#25" to="176049575#1"/>
    <flow id="49" begin="0" end="3600" period="1000" from="-50449361#3" to="25684329#22"/>
    <flow id="50" begin="0" end="3600" period="1000" from="-25486528#1" to="-689893625#0"/>
    <flow id="51" begin="0" end="3600" period="1000" from="-689893627#5" to="62233730#1"/>
    <flow id="52" begin="0" end="3600" period="1000" from="53103882#2" to="-50449361#8"/>
    <flow id="53" begin="0" end="3600" period="1000" from="1296319305#0" to="-25684523#28"/>
    <flow id="54" begin="0" end="3600" period="1000" from="54985260#1" to="53103884"/>
    <flow id="55" begin="0" end="3600" period="1000" from="-51091855#0" to="25684329#2"/>
    <flow id="56" begin="0" end="3600" period="1000" from="25486505#1" to="-25684360"/>
    <flow id="57" begin="0" end="3600" period="1000" from="477271462#0" to="176049578#2"/>
    <flow id="58" begin="0" end="3600" period="1000" from="49182216#1" to="174717540#0"/>
    <flow id="59" begin="0" end="3600" period="1000" from="-102591331#0" to="-52152425#1"/>
    <flow id="60" begin="0" end="3600" period="1000" from="-1250474171" to="54985279#2"/>
    <flow id="61" begin="0" end="3600" period="1000" from="53103886#2" to="51095934#22"/>
    <flow id="62" begin="0" end="3600" period="1000" from="-51095934#14" to="-174717540#3"/>
    <flow id="63" begin="0" end="3600" period="1000" from="53103886#1" to="622102030#3"/>
    <flow id="64" begin="0" end="3600" period="1000" from="-189410604#5" to="1250474171"/>
    <flow id="65" begin="0" end="3600" period="1000" from="-182810919" to="49180593#2"/>
    <flow id="66" begin="0" end="3600" period="1000" from="477271462#5" to="-25684238#1"/>
    <flow id="67" begin="0" end="3600" period="1000" from="102591331#3" to="182857369#2"/>
    <flow id="68" begin="0" end="3600" period="1000" from="-50449361#13" to="53103886#1"/>
    <flow id="69" begin="0" end="3600" period="1000" from="-62109629#0" to="-377148614#3"/>
    <flow id="70" begin="0" end="3600" period="1000" from="170083666#8" to="38059007#1"/>
    <flow id="71" begin="0" end="3600" period="1000" from="-25684551#8" to="-51095934#9"/>
    <flow id="72" begin="0" end="3600" period="1000" from="88247764#8" to="25684380#0"/>
    <flow id="73" begin="0" end="3600" period="1000" from="-62233730#3" to="161848768#1"/>
    <flow id="74" begin="0" end="3600" period="1000" from="-25504325#5" to="-38059019#2"/>
    <flow id="75" begin="0" end="3600" period="1000" from="-53103856#2" to="25486108#0"/>
    <flow id="76" begin="0" end="3600" period="1000" from="-38059019#4" to="-38059017#1"/>
    <flow id="77" begin="0" end="3600" period="1000" from="-182810921" to="25684329#1"/>
    <flow id="78" begin="0" end="3600" period="1000" from="-38059019#2" to="54985201"/>
    <flow id="79" begin="0" end="3600" period="1000" from="52455284#3" to="-186475564#0"/>
    <flow id="80" begin="0" end="3600" period="1000" from="-40523900#0" to="25684523#20"/>
    <flow id="81" begin="0" end="3600" period="1000" from="-377148614#0" to="-25684238#6"/>
    <flow id="82" begin="0" end="3600" period="1000" from="580760138#0" to="192981424#1"/>
    <flow id="83" begin="0" end="3600" period="1000" from="102591331#0" to="50449361#3"/>
    <flow id="84" begin="0" end="3600" period="1000" from="50831915#7" to="-25684551#14"/>
    <flow id="85" begin="0" end="3600" period="1000" from="-22774525#2" to="-64973297#1"/>
    <flow id="86" begin="0" end="3600" period="1000" from="-62109629#1" to="106756209#1"/>
    <flow id="87" begin="0" end="3600" period="1000" from="-54985260#24" to="-53103868#3"/>
    <flow id="88" begin="0" end="3600" period="1000" from="53103856#2" to="-49180594#3"/>
    <flow id="89" begin="0" end="3600" period="1000" from="-25684551#0" to="-88247764#1"/>
    <flow id="90" begin="0" end="3600" period="1000" from="-620932850#3" to="-50831916#0"/>
    <flow id="91" begin="0" end="3600" period="1000" from="-49180593#3" to="54985260#5"/>
    <flow id="92" begin="0" end="3600" period="1000" from="-64973297#1" to="53103864#2"/>
    <flow id="93" begin="0" end="3600" period="1000" from="176049575#1" to="-161848768#0"/>
    <flow id="94" begin="0" end="3600" period="1000" from="67549344#0" to="54985260#9"/>
    <flow id="95" begin="0" end="3600" period="1000" from="51510530#6" to="-25684523#13"/>
    <flow id="96" begin="0" end="3600" period="1000" from="1120517232#4" to="-38059007#1"/>
    <flow id="97" begin="0" end="3600" period="1000" from="-54985260#21" to="-174717540#4"/>
    <flow id="98" begin="0" end="3600" period="1000" from="-54357872#0" to="829563410#1"/>
    <flow id="99" begin="0" end="3600" period="1000" from="-50449361#13" to="50449361#3"/>
    <flow id="100" begin="0" end="3600" period="1000" from="-754260671" to="-622102031#5"/>
    <flow id="101" begin="0" end="3600" period="1000" from="62233730#1" to="88247764#7"/>
    <flow id="102" begin="0" end="3600" period="1000" from="182569609" to="37177801#16"/>
    <flow id="103" begin="0" end="3600" period="1000" from="-25684329#5" to="-51095934#11"/>
    <flow id="104" begin="0" end="3600" period="1000" from="64973302#1" to="192987238#1"/>
    <flow id="105" begin="0" end="3600" period="1000" from="174648254" to="40523896#3"/>
    <flow id="106" begin="0" end="3600" period="1000" from="-174717540#3" to="192987244#2"/>
    <flow id="107" begin="0" end="3600" period="1000" from="1296319312#1" to="52455284#2"/>
    <flow id="108" begin="0" end="3600" period="1000" from="-25684329#8" to="634552275#1"/>
    <flow id="109" begin="0" end="3600" period="1000" from="-186504536#0" to="-25684551#0"/>
    <flow id="110" begin="0" end="3600" period="1000" from="22774525#1" to="25684523#29"/>
    <flow id="111" begin="0" end="3600" period="1000" from="-40523896#2" to="-25504330#4"/>
    <flow id="112" begin="0" end="3600" period="1000" from="53369149#0" to="-49180594#0"/>
    <flow id="113" begin="0" end="3600" period="1000" from="22774525#1" to="25504350#4"/>
    <flow id="114" begin="0" end="3600" period="1000" from="-580760138#7" to="192987244#2"/>
    <flow id="115" begin="0" end="3600" period="1000" from="133453038" to="580760138#4"/>
    <flow id="116" begin="0" end="3600" period="1000" from="-25684557#2" to="37177801#13"/>
    <flow id="117" begin="0" end="3600" period="1000" from="-40523900#1" to="-54985260#5"/>
    <flow id="118" begin="0" end="3600" period="1000" from="25684523#12" to="-51095934#15"/>
    <flow id="119" begin="0" end="3600" period="1000" from="-51095934#3" to="443524632#0"/>
    <flow id="120" begin="0" end="3600" period="1000" from="-182857369#1" to="-38059007#1"/>
    <flow id="121" begin="0" end="3600" period="1000" from="-50449361#13" to="580760138#2"/>
    <flow id="122" begin="0" end="3600" period="1000" from="53103889" to="53369104#1"/>
    <flow id="123" begin="0" end="3600" period="1000" from="-53369157#1" to="-25684487#0"/>
    <flow id="124" begin="0" end="3600" period="1000" from="51095934#18" to="277523407#0"/>
    <flow id="125" begin="0" end="3600" period="1000" from="25486528#2" to="86642254#0"/>
    <flow id="126" begin="0" end="3600" period="1000" from="25684329#5" to="-1075767203#0"/>
    <flow id="127" begin="0" end="3600" period="1000" from="50831920#1" to="-51095934#14"/>
    <flow id="128" begin="0" end="3600" period="1000" from="25684487#0" to="620932850#2"/>
    <flow id="129" begin="0" end="3600" period="1000" from="-25684238#1" to="-25504325#3"/>
    <flow id="130" begin="0" end="3600" period="1000" from="-25486115#4" to="186475564#0"/>
    <flow id="131" begin="0" end="3600" period="1000" from="-50743275" to="25486528#5"/>
    <flow id="132" begin="0" end="3600" period="1000" from="25684238#3" to="-50449361#9"/>
    <flow id="133" begin="0" end="3600" period="1000" from="1120517232#8" to="54985187"/>
    <flow id="134" begin="0" end="3600" period="1000" from="51510530#3" to="-22774525#1"/>
    <flow id="135" begin="0" end="3600" period="1000" from="-62109629#1" to="-50831915#8"/>
    <flow id="136" begin="0" end="3600" period="1000" from="-102591331#4" to="49182216#0"/>
    <flow id="137" begin="0" end="3600" period="1000" from="25684238#7" to="-50449361#6"/>
    <flow id="138" begin="0" end="3600" period="1000" from="38059010#0" to="185029128#1"/>
    <flow id="139" begin="0" end="3600" period="1000" from="-622102030#1" to="-109849141"/>
    <flow id="140" begin="0" end="3600" period="1000" from="-182857369#4" to="53369130#1"/>
    <flow id="141" begin="0" end="3600" period="1000" from="54357872#2" to="182810920"/>
    <flow id="142" begin="0" end="3600" period="1000" from="51095934#19" to="192987244#0"/>
    <flow id="143" begin="0" end="3600" period="1000" from="-25684329#2" to="-25684238#0"/>
    <flow id="144" begin="0" end="3600" period="1000" from="-51095934#15" to="54985149"/>
    <flow id="145" begin="0" end="3600" period="1000" from="50449361#9" to="53103864#2"/>
    <flow id="146" begin="0" end="3600" period="1000" from="53369157#9" to="-377148614#0"/>
    <flow id="147" begin="0" end="3600" period="1000" from="-49180593#3" to="-25486115#4"/>
    <flow id="148" begin="0" end="3600" period="1000" from="49182216#3" to="53369130#2"/>
    <flow id="149" begin="0" end="3600" period="1000" from="-54985260#6" to="25504350#5"/>
    <flow id="150" begin="0" end="3600" period="1000" from="-25684329#4" to="54985279#3"/>
    <flow id="151" begin="0" end="3600" period="1000" from="53103863#1" to="689893627#4"/>
    <flow id="152" begin="0" end="3600" period="1000" from="50831916#1" to="53369104#4"/>
    <flow id="153" begin="0" end="3600" period="1000" from="-1296319312#4" to="38059017#2"/>
    <flow id="154" begin="0" end="3600" period="1000" from="-52152425#1" to="54985279#5"/>
    <flow id="155" begin="0" end="3600" period="1000" from="50831915#1" to="53103868#2"/>
    <flow id="156" begin="0" end="3600" period="1000" from="50831916#1" to="-50831909#0"/>
    <flow id="157" begin="0" end="3600" period="1000" from="50449361#1" to="-25486528#3"/>
    <flow id="158" begin="0" end="3600" period="1000" from="53103873" to="53103863#1"/>
    <flow id="159" begin="0" end="3600" period="1000" from="-38059010#3" to="51091855#0"/>
    <flow id="160" begin="0" end="3600" period="1000" from="-829563410#1" to="-51095934#21"/>
    <flow id="161" begin="0" end="3600" period="1000" from="50449361#8" to="-40523875#0"/>
    <flow id="162" begin="0" end="3600" period="1000" from="-1296319312#2" to="-25684551#3"/>
    <flow id="163" begin="0" end="3600" period="1000" from="-51543398#1" to="53103868#2"/>
    <flow id="164" begin="0" end="3600" period="1000" from="64973297#1" to="-50831916#1"/>
    <flow id="165" begin="0" end="3600" period="1000" from="25684329#13" to="-54985279#0"/>
    <flow id="166" begin="0" end="3600" period="1000" from="580760138#5" to="-25504325#3"/>
    <flow id="167" begin="0" end="3600" period="1000" from="67549357#0" to="-25684523#28"/>
    <flow id="168" begin="0" end="3600" period="1000" from="626880271#2" to="-50743274#1"/>
    <flow id="169" begin="0" end="3600" period="1000" from="-25486505#0" to="-689893625#0"/>
    <flow id="170" begin="0" end="3600" period="1000" from="25486115#3" to="1408120319#1"/>
    <flow id="171" begin="0" end="3600" period="1000" from="-54985158#4" to="192981425#0"/>
    <flow id="172" begin="0" end="3600" period="1000" from="-49180594#2" to="322189562#1"/>
    <flow id="173" begin="0" end="3600" period="1000" from="-102591331#2" to="54985260#8"/>
    <flow id="174" begin="0" end="3600" period="1000" from="170083666#7" to="37177801#2"/>
    <flow id="175" begin="0" end="3600" period="1000" from="38059010#1" to="25684523#22"/>
    <flow id="176" begin="0" end="3600" period="1000" from="-53369104#5" to="-182857369#3"/>
    <flow id="177" begin="0" end="3600" period="1000" from="25684487#1" to="-53103856#2"/>
    <flow id="178" begin="0" end="3600" period="1000" from="-51095934#21" to="52151681#2"/>
    <flow id="179" begin="0" end="3600" period="1000" from="371342805#0" to="-51095934#16"/>
    <flow id="180" begin="0" end="3600" period="1000" from="-51095934#16" to="-580760138#6"/>
    <flow id="181" begin="0" end="3600" period="1000" from="-54985260#23" to="-51095934#1"/>
    <flow id="182" begin="0" end="3600" period="1000" from="-25504350#2" to="-622102031#2"/>
    <flow id="183" begin="0" end="3600" period="1000" from="580760138#6" to="25684523#30"/>
    <flow id="184" begin="0" end="3600" period="1000" from="54357872#1" to="25504330#5"/>
    <flow id="185" begin="0" end="3600" period="1000" from="-51095930#0" to="182857369#0"/>
    <flow id="186" begin="0" end="3600" period="1000" from="-102591331#0" to="-50831944#0"/>
    <flow id="187" begin="0" end="3600" period="1000" from="-622102031#0" to="192987238#2"/>
    <flow id="188" begin="0" end="3600" period="1000" from="25684329#6" to="106756207"/>
    <flow id="189" begin="0" end="3600" period="1000" from="-64973297#0" to="-38059007#1"/>
    <flow id="190" begin="0" end="3600" period="1000" from="102591331#0" to="54985158#2"/>
    <flow id="191" begin="0" end="3600" period="1000" from="50449361#9" to="-25684523#17"/>
    <flow id="192" begin="0" end="3600" period="1000" from="-189410604#3" to="1451914935"/>
    <flow id="193" begin="0" end="3600" period="1000" from="25684238#1" to="-53103864#1"/>
    <flow id="194" begin="0" end="3600" period="1000" from="25684523#14" to="-38059019#2"/>
    <flow id="195" begin="0" end="3600" period="1000" from="-25684551#5" to="-1296319312#3"/>
    <flow id="196" begin="0" end="3600" period="1000" from="-477271462#3" to="1120517232#8"/>
    <flow id="197" begin="0" end="3600" period="1000" from="51510531#1" to="-186475564#2"/>
    <flow id="198" begin="0" end="3600" period="1000" from="-580760138#1" to="25684329#0"/>
    <flow id="199" begin="0" end="3600" period="1000" from="-25684551#14" to="25684557#2"/>
    <flow id="200" begin="0" end="3600" period="1000" from="1219576051#2" to="-49180593#4"/>
    <flow id="201" begin="0" end="3600" period="1000" from="25684329#8" to="-106756207"/>
    <flow id="202" begin="0" end="3600" period="1000" from="38059019#3" to="49182215#3"/>
    <flow id="203" begin="0" end="3600" period="1000" from="-25486115#4" to="-62233730#0"/>
    <flow id="204" begin="0" end="3600" period="1000" from="-25684523#2" to="626880271#0"/>
    <flow id="205" begin="0" end="3600" period="1000" from="132650516#0" to="-161848768#0"/>
    <flow id="206" begin="0" end="3600" period="1000" from="-49180593#2" to="52151681#2"/>
    <flow id="207" begin="0" end="3600" period="1000" from="-75886858#0" to="50831915#7"/>
    <flow id="208" begin="0" end="3600" period="1000" from="25684487#6" to="86642254#1"/>
    <flow id="209" begin="0" end="3600" period="1000" from="22774525#2" to="622102031#3"/>
    <flow id="210" begin="0" end="3600" period="1000" from="53369157#0" to="25504330#1"/>
    <flow id="211" begin="0" end="3600" period="1000" from="322189562#1" to="132650516#0"/>
    <flow id="212" begin="0" end="3600" period="1000" from="51095934#14" to="182857369#0"/>
    <flow id="213" begin="0" end="3600" period="1000" from="53369157#6" to="40523874"/>
    <flow id="214" begin="0" end="3600" period="1000" from="102591331#2" to="-50449361#2"/>
    <flow id="215" begin="0" end="3600" period="1000" from="-49180593#0" to="25684329#18"/>
    <flow id="216" begin="0" end="3600" period="1000" from="477271462#5" to="170083666#2"/>
    <flow id="217" begin="0" end="3600" period="1000" from="25504350#3" to="-50831915#5"/>
    <flow id="218" begin="0" end="3600" period="1000" from="-186475564#2" to="-50831920#1"/>
    <flow id="219" begin="0" end="3600" period="1000" from="-50743274#1" to="-51543398#0"/>
    <flow id="220" begin="0" end="3600" period="1000" from="170083666#9" to="-25684329#14"/>
    <flow id="221" begin="0" end="3600" period="1000" from="-395863271" to="25684551#9"/>
    <flow id="222" begin="0" end="3600" period="1000" from="25684557#3" to="-176049578#3"/>
    <flow id="223" begin="0" end="3600" period="1000" from="-54985260#7" to="182569606"/>
    <flow id="224" begin="0" end="3600" period="1000" from="-580760138#2" to="-322189562#0"/>
    <flow id="225" begin="0" end="3600" period="1000" from="-620932850#0" to="54985187"/>
    <flow id="226" begin="0" end="3600" period="1000" from="192981424#7" to="25684557#1"/>
    <flow id="227" begin="0" end="3600" period="1000" from="52152425#2" to="49180594#1"/>
    <flow id="228" begin="0" end="3600" period="1000" from="-54357872#2" to="-106756207"/>
    <flow id="229" begin="0" end="3600" period="1000" from="-53103882#1" to="477271454"/>
    <flow id="230" begin="0" end="3600" period="1000" from="52151681#1" to="62233730#0"/>
    <flow id="231" begin="0" end="3600" period="1000" from="-580760138#7" to="40523896#3"/>
    <flow id="232" begin="0" end="3600" period="1000" from="174717540#3" to="25486528#3"/>
    <flow id="233" begin="0" end="3600" period="1000" from="-38059010#1" to="-38059017#0"/>
    <flow id="234" begin="0" end="3600" period="1000" from="-62233730#0" to="-130503625#3"/>
    <flow id="235" begin="0" end="3600" period="1000" from="-52455284#3" to="25684523#6"/>
    <flow id="236" begin="0" end="3600" period="1000" from="-54985260#3" to="-25684523#11"/>
    <flow id="237" begin="0" end="3600" period="1000" from="-88247764#7" to="-25684238#0"/>
    <flow id="238" begin="0" end="3600" period="1000" from="25504330#2" to="-130503625#1"/>
    <flow id="239" begin="0" end="3600" period="1000" from="-54985260#13" to="189410604#7"/>
    <flow id="240" begin="0" end="3600" period="1000" from="-130503625#1" to="25684329#24"/>
    <flow id="241" begin="0" end="3600" period="1000" from="-25684238#3" to="102591331#2"/>
    <flow id="242" begin="0" end="3600" period="1000" from="-1451914936#1" to="-54985232#0"/>
    <flow id="243" begin="0" end="3600" period="1000" from="-322189562#1" to="-52455284#1"/>
    <flow id="244" begin="0" end="3600" period="1000" from="477271454" to="-54985232#0"/>
    <flow id="245" begin="0" end="3600" period="1000" from="38059019#4" to="51095934#22"/>
    <flow id="246" begin="0" end="3600" period="1000" from="-49180593#7" to="-189410604#6"/>
    <flow id="247" begin="0" end="3600" period="1000" from="-1250474171" to="176049578#2"/>
    <flow id="248" begin="0" end="3600" period="1000" from="25684329#23" to="50449361#11"/>
    <flow id="249" begin="0" end="3600" period="1000" from="25684329#25" to="477271462#0"/>
    <flow id="250" begin="0" end="3600" period="1000" from="622102030#3" to="-25684557#1"/>
    <flow id="251" begin="0" end="3600" period="1000" from="-1296319305#0" to="-25684329#9"/>
    <flow id="252" begin="0" end="3600" period="1000" from="-25504350#0" to="25684523#21"/>
    <flow id="253" begin="0" end="3600" period="1000" from="186475564#2" to="-38059010#3"/>
    <flow id="254" begin="0" end="3600" period="1000" from="25684551#4" to="49180594#3"/>
    <flow id="255" begin="0" end="3600" period="1000" from="-25684523#1" to="25486528#8"/>
    <flow id="256" begin="0" end="3600" period="1000" from="38059017#4" to="-25504325#2"/>
    <flow id="257" begin="0" end="3600" period="1000" from="50831944#1" to="64973297#0"/>
    <flow id="258" begin="0" end="3600" period="1000" from="-25486505#0" to="-1296319312#5"/>
    <flow id="259" begin="0" end="3600" period="1000" from="-51095934#2" to="25684523#4"/>
    <flow id="260" begin="0" end="3600" period="1000" from="62233730#2" to="-54985260#6"/>
    <flow id="261" begin="0" end="3600" period="1000" from="277523407#1" to="-186504536#1"/>
    <flow id="262" begin="0" end="3600" period="1000" from="25684523#9" to="25684238#4"/>
    <flow id="263" begin="0" end="3600" period="1000" from="-25486114#0" to="49182216#2"/>
    <flow id="264" begin="0" end="3600" period="1000" from="51510531#1" to="25486505#2"/>
    <flow id="265" begin="0" end="3600" period="1000" from="-25504325#5" to="75886858#3"/>
    <flow id="266" begin="0" end="3600" period="1000" from="49830666#2" to="-53103886#1"/>
    <flow id="267" begin="0" end="3600" period="1000" from="-622102030#2" to="-54357872#0"/>
    <flow id="268" begin="0" end="3600" period="1000" from="130503625#0" to="-53103873"/>
    <flow id="269" begin="0" end="3600" period="1000" from="51510531#0" to="51095934#10"/>
    <flow id="270" begin="0" end="3600" period="1000" from="-25486115#2" to="634552275#1"/>
    <flow id="271" begin="0" end="3600" period="1000" from="25684238#5" to="51095934#19"/>
    <flow id="272" begin="0" end="3600" period="1000" from="25684557#4" to="-689893625#1"/>
    <flow id="273" begin="0" end="3600" period="1000" from="-50449361#7" to="50831919#0"/>
    <flow id="274" begin="0" end="3600" period="1000" from="170083666#7" to="1219576051#6"/>
    <flow id="275" begin="0" end="3600" period="1000" from="-62233730#0" to="38059007#3"/>
    <flow id="276" begin="0" end="3600" period="1000" from="-50449361#5" to="52455284#0"/>
    <flow id="277" begin="0" end="3600" period="1000" from="51095934#14" to="-192981423#3"/>
    <flow id="278" begin="0" end="3600" period="1000" from="53103893#0" to="-49180593#4"/>
    <flow id="279" begin="0" end="3600" period="1000" from="-88247764#3" to="25504325#4"/>
    <flow id="280" begin="0" end="3600" period="1000" from="-54357872#0" to="-130503625#3"/>
    <flow id="281" begin="0" end="3600" period="1000" from="51510531#2" to="-25684523#5"/>
    <flow id="282" begin="0" end="3600" period="1000" from="-371342805#0" to="50831915#2"/>
    <flow id="283" begin="0" end="3600" period="1000" from="-53103863#0" to="53369104#3"/>
    <flow id="284" begin="0" end="3600" period="1000" from="25684551#6" to="-50831915#7"/>
    <flow id="285" begin="0" end="3600" period="1000" from="-1120517233" to="622102031#1"/>
    <flow id="286" begin="0" end="3600" period="1000" from="-189410604#5" to="37177801#3"/>
    <flow id="287" begin="0" end="3600" period="1000" from="1120517232#8" to="477271462#5"/>
    <flow id="288" begin="0" end="3600" period="1000" from="25684523#9" to="25684329#5"/>
    <flow id="289" begin="0" end="3600" period="1000" from="1124346622#0" to="50831914#0"/>
    <flow id="290" begin="0" end="3600" period="1000" from="-192987244#0" to="-38059017#3"/>
    <flow id="291" begin="0" end="3600" period="1000" from="25684551#0" to="-51095934#22"/>
    <flow id="292" begin="0" end="3600" period="1000" from="192981424#3" to="1120517232#6"/>
    <flow id="293" begin="0" end="3600" period="1000" from="161848768#1" to="-62233730#1"/>
    <flow id="294" begin="0" end="3600" period="1000" from="38059017#1" to="-53103856#2"/>
    <flow id="295" begin="0" end="3600" period="1000" from="25684551#8" to="-50831915#1"/>
    <flow id="296" begin="0" end="3600" period="1000" from="-49180593#5" to="-25504350#0"/>
    <flow id="297" begin="0" end="3600" period="1000" from="-25684551#11" to="-25504330#4"/>
    <flow id="298" begin="0" end="3600" period="1000" from="170083666#4" to="49180593#4"/>
    <flow id="299" begin="0" end="3600" period="1000" from="-25684523#30" to="-38059010#1"/>
    <flow id="300" begin="0" end="3600" period="1000" from="1120517232#2" to="37177801#9"/>
    <flow id="301" begin="0" end="3600" period="1000" from="689893627#2" to="170083666#7"/>
    <flow id="302" begin="0" end="3600" period="1000" from="-50831915#6" to="-25486115#1"/>
    <flow id="303" begin="0" end="3600" period="1000" from="-25684551#13" to="-40523875#0"/>
    <flow id="304" begin="0" end="3600" period="1000" from="-25684523#24" to="-1219576051#1"/>
    <flow id="305" begin="0" end="3600" period="1000" from="170083666#10" to="-50831915#5"/>
    <flow id="306" begin="0" end="3600" period="1000" from="689893626" to="186475564#0"/>
    <flow id="307" begin="0" end="3600" period="1000" from="25684551#16" to="-25504369#0"/>
    <flow id="308" begin="0" end="3600" period="1000" from="53103868#0" to="1296319312#3"/>
    <flow id="309" begin="0" end="3600" period="1000" from="53103873" to="192981424#5"/>
    <flow id="310" begin="0" end="3600" period="1000" from="-88247764#9" to="-689893627#4"/>
    <flow id="311" begin="0" end="3600" period="1000" from="-25684523#3" to="-161848768#1"/>
    <flow id="312" begin="0" end="3600" period="1000" from="580760138#7" to="1124346622#1"/>
    <flow id="313" begin="0" end="3600" period="1000" from="51091855#0" to="-54985279#1"/>
    <flow id="314" begin="0" end="3600" period="1000" from="-182857369#2" to="25684238#7"/>
    <flow id="315" begin="0" end="3600" period="1000" from="-174648257#1" to="-25684329#5"/>
    <flow id="316" begin="0" end="3600" period="1000" from="186475564#1" to="-51095934#2"/>
    <flow id="317" begin="0" end="3600" period="1000" from="88247764#6" to="-25504330#2"/>
    <flow id="318" begin="0" end="3600" period="1000" from="477271462#3" to="25486528#7"/>
    <flow id="319" begin="0" end="3600" period="1000" from="50449361#2" to="-38059019#3"/>
    <flow id="320" begin="0" end="3600" period="1000" from="133453038" to="-88247764#2"/>
    <flow id="321" begin="0" end="3600" period="1000" from="-64973297#1" to="53103864#1"/>
    <flow id="322" begin="0" end="3600" period="1000" from="88247764#10" to="-51095934#21"/>