<net>
    <location netOffset="0.00,0.00" convBoundary="-500.00,-500.00,500.00,500.00"/>
    <edge id="n2c" from="n" to="c" priority="1" numLanes="1" speed="13.9"/>
    <edge id="s2c" from="s" to="c" priority="1" numLanes="1" speed="13.9"/>
    <edge id="c2n" from="c" to="n" priority="1" numLanes="1" speed="13.9"/>
    <edge id="c2s" from="c" to="s" priority="1" numLanes="1" speed="13.9"/>

    <junction id="n" x="0" y="500" type="dead_end"/>
    <junction id="s" x="0" y="-500" type="dead_end"/>
    <junction id="c" x="0" y="0" type="traffic_light"/>

    <tlLogic id="c" type="static" programID="0" offset="0">
        <phase duration="30" state="Gr"/>
        <phase duration="5" state="yr"/>
        <phase duration="30" state="rG"/>
        <phase duration="5" state="ry"/>
    </tlLogic>
</net>
